# Simulation name file for MODFLOW 6 prepared by MF5to6

BEGIN Options
END Options

BEGIN TIMING
  TDIS6  mumodel.tdis
END TIMING

BEGIN MODELS
  GWF6  mumodel.nam  mumodel
END MODELS

BEGIN EXCHANGES
END EXCHANGES

BEGIN SOLUTIONGROUP 1
  MXITER  1
  IMS6  mumodel.ims  mumodel
END SOLUTIONGROUP
