# IC6 input file, prepared by MF5to6 on 3/30/2024 at 15:05:45.

BEGIN Options
END Options

BEGIN GRIDDATA
  STRT LAYERED
    INTERNAL  FACTOR    1.000000      IPRN  1
   1000.000       1000.000       1000.000       1000.000       1000.000       1000.000       1000.000       1000.000       1000.000    
   1100.000       1100.000       1100.000       1100.000       1100.000       1100.000       1100.000       1100.000       1100.000    
   1100.000       1100.000       1100.000       1100.000       1100.000       1100.000       1100.000       1100.000       1100.000    
   1100.000       1100.000       1100.000       1100.000       1100.000       1100.000       1100.000       1100.000       1100.000    
   1100.000       1100.000       1100.000       1100.000       1100.000       1100.000       1100.000       1100.000       1100.000    
   1100.000       1100.000       1100.000       1100.000       1100.000       1100.000       1100.000       1100.000       1100.000    
   1100.000       1100.000       1100.000       1100.000       1100.000       1100.000       1100.000       1100.000       1100.000    
   1100.000       1100.000       1100.000       1100.000       1100.000       1100.000       1100.000       1100.000       1100.000    
   1100.000       1100.000       1100.000       1100.000       1100.000       1100.000       1100.000       1100.000       1100.000    
   1100.000       1100.000       1100.000       1100.000       1100.000       1100.000       1100.000       1100.000       1100.000    
   1100.000       1100.000       1100.000       1100.000       1100.000       1100.000       1100.000       1100.000       1100.000    
   1100.000       1100.000       1100.000       1100.000       1100.000       1100.000       1100.000       1100.000       1100.000    
   1100.000       1100.000       1100.000       1100.000       1100.000       1100.000       1100.000       1100.000       1100.000    
   1100.000       1100.000       1100.000       1100.000       1100.000       1100.000       1100.000       1100.000       1100.000    
   1100.000       1100.000       1100.000       1100.000       1100.000       1100.000       1100.000       1100.000       1100.000    
   1100.000       1100.000       1100.000       1100.000       1100.000       1100.000       1100.000       1100.000       1100.000    
   1100.000       1100.000       1100.000       1100.000       1100.000       1100.000       1100.000       1100.000       1100.000    
   1100.000       1100.000       1100.000       1100.000       1100.000       1100.000       1100.000       1100.000       1100.000    
   1100.000       1100.000       1100.000       1100.000       1100.000       1100.000       1100.000       1100.000       1100.000    
   1100.000       1100.000       1100.000       1100.000       1100.000       1100.000       1100.000       1100.000       1100.000    
   1000.000       1000.000       1000.000       1000.000       1000.000       1000.000       1000.000       1000.000       1000.000    
END GRIDDATA
