# CHD6 input file, prepared by MF5to6 on 1/30/2024 at 15:47:34.

BEGIN Options
  PRINT_INPUT
  PRINT_FLOWS
END Options

BEGIN Dimensions
  MAXBOUND  18
END Dimensions

BEGIN PERIOD 1
  1  1  1    1000.0000
  1  1  2    1000.0000
  1  1  3    1000.0000
  1  1  4    1000.0000
  1  1  5    1000.0000
  1  1  6    1000.0000
  1  1  7    1000.0000
  1  1  8    1000.0000
  1  1  9    1000.0000
  1  21  1    1000.0000
  1  21  2    1000.0000
  1  21  3    1000.0000
  1  21  4    1000.0000
  1  21  5    1000.0000
  1  21  6    1000.0000
  1  21  7    1000.0000
  1  21  8    1000.0000
  1  21  9    1000.0000
END PERIOD
