# OBS6 input file, prepared by MF5to6 on 1/30/2024 at 15:47:34.
BEGIN Options
  PRINT_INPUT
  DIGITS  7
END Options
