# WEL6 input file, prepared by MF5to6 on 1/30/2024 at 15:47:34.

BEGIN Options
  AUXILIARY IFACE
  PRINT_INPUT
  PRINT_FLOWS
  SAVE_FLOWS
END Options

BEGIN Dimensions
  MAXBOUND  3
END Dimensions

BEGIN PERIOD 1
  1  5  5    0.0000000        0.0000000
  1  11  5    0.0000000        0.0000000
  1  5  5    0.0000000        0.0000000
END PERIOD

BEGIN PERIOD 14
  1  5  5   -20000.000        0.0000000
  1  11  5    0.0000000        0.0000000
  1  5  5    0.0000000        0.0000000
END PERIOD
