# File generated by Flopy version 3.5.0 on 02/03/2024 at 21:45:33.
BEGIN Options
  SAVE_FLOWS
  VARIABLECV  DEWATERED
  PERCHED
END Options

BEGIN GRIDDATA
  icelltype  LAYERED
    CONSTANT  1
  k
    CONSTANT      50.00000000
END GRIDDATA

