# PCG package for MODFLOW-2000 generated by Flopy 3.5.0
       100        25         1      9999
 1.000e-03 1.000e+00 1.000e+00         2         5         0 1.000e+00
