# OC6 input file, prepared by MF5to6 on 2/21/2024 at 17:06:10.

BEGIN Options
  BUDGET FILEOUT  mumodel_7-2b.cbb
  HEAD FILEOUT  mumodel_7-2b.hds
  HEAD PRINT_FORMAT  COLUMNS 10  WIDTH 11  DIGITS 4  GENERAL             
END Options

BEGIN PERIOD 1
  SAVE BUDGET ALL
  PRINT BUDGET ALL
  SAVE HEAD ALL
END PERIOD
