# File generated by Flopy version 3.5.0 on 03/30/2024 at 15:43:46.
BEGIN Options
  SAVE_FLOWS
  VARIABLECV  DEWATERED
  PERCHED
END Options

BEGIN GRIDDATA
  icelltype
    OPEN/CLOSE  'mumodel.npf_icelltype.txt'  FACTOR  1
  k
    OPEN/CLOSE  'mumodel.npf_k.txt'  FACTOR  1.0
END GRIDDATA

