# File generated by Flopy version 3.5.0 on 03/30/2024 at 15:43:46.
BEGIN GRIDDATA
  strt
    OPEN/CLOSE  'mumodel.ic_strt.txt'  FACTOR  1.0
END GRIDDATA

