# OBS6 input file, prepared by MF5to6 on 3/30/2024 at 15:05:45.
BEGIN Options
  PRINT_INPUT
  DIGITS  7
END Options
