# File generated by Flopy version 3.5.0 on 04/04/2024 at 10:02:00.
BEGIN Options
  SAVE_FLOWS
  VARIABLECV  DEWATERED
  PERCHED
END Options

BEGIN GRIDDATA
  icelltype
    OPEN/CLOSE  'mumodel.npf_icelltype.txt'  FACTOR  1
  k
    OPEN/CLOSE  'mumodel.npf_k.txt'  FACTOR  1.0
END GRIDDATA

