# File generated by Flopy version 3.5.0 on 04/04/2024 at 11:58:26.
BEGIN options
END options

BEGIN continuous  FILEOUT  hds.csv
    OPEN/CLOSE  'mumodel.obs_continuous_hds.csv.txt'
END continuous  FILEOUT  hds.csv

