# File generated by Flopy version 3.5.0 on 03/30/2024 at 15:43:46.
BEGIN Options
  PRINT_INPUT
  PRINT_FLOWS
END Options

BEGIN Dimensions
  MAXBOUND  18
END Dimensions

BEGIN PERIOD  1
    OPEN/CLOSE  'mumodel.ib.ibound.chd_stress_period_data_1.txt'
END PERIOD  1

