# MODFLOW2000 Layer Property Flow (LPF) Package
        50  -1.000000e+30         0
  1
  0
  1.000000e+00
 0
 0
        11   1.00000(10e12.4)                   -1     HYDRAULIC CONDUCTIVITY Layer   1
  5.0000e+01  5.0000e+01  5.0000e+01  5.0000e+01  5.0000e+01  5.0000e+01  5.0000e+01  5.0000e+01  5.0000e+01
  5.0000e+01  5.0000e+01  5.0000e+01  5.0000e+01  5.0000e+01  5.0000e+01  5.0000e+01  5.0000e+01  5.0000e+01
  5.0000e+01  5.0000e+01  5.0000e+01  5.0000e+01  5.0000e+01  5.0000e+01  5.0000e+01  5.0000e+01  5.0000e+01
  5.0000e+01  5.0000e+01  5.0000e+01  5.0000e+01  5.0000e+01  5.0000e+01  5.0000e+01  5.0000e+01  5.0000e+01
  5.0000e+01  5.0000e+01  5.0000e+01  5.0000e+01  5.0000e+01  5.0000e+01  5.0000e+01  5.0000e+01  5.0000e+01
  5.0000e+01  5.0000e+01  5.0000e+01  5.0000e+01  5.0000e+01  5.0000e+01  5.0000e+01  5.0000e+01  5.0000e+01
  5.0000e+01  5.0000e+01  5.0000e+01  5.0000e+01  5.0000e+01  5.0000e+01  5.0000e+01  5.0000e+01  5.0000e+01
  5.0000e+01  5.0000e+01  5.0000e+01  5.0000e+01  5.0000e+01  5.0000e+01  5.0000e+01  5.0000e+01  5.0000e+01
  5.0000e+01  5.0000e+01  5.0000e+01  5.0000e+01  5.0000e+01  5.0000e+01  5.0000e+01  5.0000e+01  5.0000e+01
  5.0000e+01  5.0000e+01  5.0000e+01  5.0000e+01  5.0000e+01  5.0000e+01  5.0000e+01  5.0000e+01  5.0000e+01
  5.0000e+01  5.0000e+01  5.0000e+01  5.0000e+01  5.0000e+01  5.0000e+01  5.0000e+01  5.0000e+01  5.0000e+01
  5.0000e+01  5.0000e+01  5.0000e+01  5.0000e+01  5.0000e+01  5.0000e+01  5.0000e+01  5.0000e+01  5.0000e+01
  5.0000e+01  5.0000e+01  5.0000e+01  5.0000e+01  5.0000e+01  5.0000e+01  5.0000e+01  5.0000e+01  5.0000e+01
  5.0000e+01  5.0000e+01  5.0000e+01  5.0000e+01  5.0000e+01  5.0000e+01  5.0000e+01  5.0000e+01  5.0000e+01
  5.0000e+01  5.0000e+01  5.0000e+01  5.0000e+01  5.0000e+01  5.0000e+01  5.0000e+01  5.0000e+01  5.0000e+01
  5.0000e+01  5.0000e+01  5.0000e+01  5.0000e+01  5.0000e+01  5.0000e+01  5.0000e+01  5.0000e+01  5.0000e+01
  5.0000e+01  5.0000e+01  5.0000e+01  5.0000e+01  5.0000e+01  5.0000e+01  5.0000e+01  5.0000e+01  5.0000e+01
  5.0000e+01  5.0000e+01  5.0000e+01  5.0000e+01  5.0000e+01  5.0000e+01  5.0000e+01  5.0000e+01  5.0000e+01
  5.0000e+01  5.0000e+01  5.0000e+01  5.0000e+01  5.0000e+01  5.0000e+01  5.0000e+01  5.0000e+01  5.0000e+01
  5.0000e+01  5.0000e+01  5.0000e+01  5.0000e+01  5.0000e+01  5.0000e+01  5.0000e+01  5.0000e+01  5.0000e+01
  5.0000e+01  5.0000e+01  5.0000e+01  5.0000e+01  5.0000e+01  5.0000e+01  5.0000e+01  5.0000e+01  5.0000e+01
        11   1.00000(10e12.4)                   -1     VERTICAL HYDRAULIC CONDUCTIVITY Layer   1
  5.0000e+01  5.0000e+01  5.0000e+01  5.0000e+01  5.0000e+01  5.0000e+01  5.0000e+01  5.0000e+01  5.0000e+01
  5.0000e+01  5.0000e+01  5.0000e+01  5.0000e+01  5.0000e+01  5.0000e+01  5.0000e+01  5.0000e+01  5.0000e+01
  5.0000e+01  5.0000e+01  5.0000e+01  5.0000e+01  5.0000e+01  5.0000e+01  5.0000e+01  5.0000e+01  5.0000e+01
  5.0000e+01  5.0000e+01  5.0000e+01  5.0000e+01  5.0000e+01  5.0000e+01  5.0000e+01  5.0000e+01  5.0000e+01
  5.0000e+01  5.0000e+01  5.0000e+01  5.0000e+01  5.0000e+01  5.0000e+01  5.0000e+01  5.0000e+01  5.0000e+01
  5.0000e+01  5.0000e+01  5.0000e+01  5.0000e+01  5.0000e+01  5.0000e+01  5.0000e+01  5.0000e+01  5.0000e+01
  5.0000e+01  5.0000e+01  5.0000e+01  5.0000e+01  5.0000e+01  5.0000e+01  5.0000e+01  5.0000e+01  5.0000e+01
  5.0000e+01  5.0000e+01  5.0000e+01  5.0000e+01  5.0000e+01  5.0000e+01  5.0000e+01  5.0000e+01  5.0000e+01
  5.0000e+01  5.0000e+01  5.0000e+01  5.0000e+01  5.0000e+01  5.0000e+01  5.0000e+01  5.0000e+01  5.0000e+01
  5.0000e+01  5.0000e+01  5.0000e+01  5.0000e+01  5.0000e+01  5.0000e+01  5.0000e+01  5.0000e+01  5.0000e+01
  5.0000e+01  5.0000e+01  5.0000e+01  5.0000e+01  5.0000e+01  5.0000e+01  5.0000e+01  5.0000e+01  5.0000e+01
  5.0000e+01  5.0000e+01  5.0000e+01  5.0000e+01  5.0000e+01  5.0000e+01  5.0000e+01  5.0000e+01  5.0000e+01
  5.0000e+01  5.0000e+01  5.0000e+01  5.0000e+01  5.0000e+01  5.0000e+01  5.0000e+01  5.0000e+01  5.0000e+01
  5.0000e+01  5.0000e+01  5.0000e+01  5.0000e+01  5.0000e+01  5.0000e+01  5.0000e+01  5.0000e+01  5.0000e+01
  5.0000e+01  5.0000e+01  5.0000e+01  5.0000e+01  5.0000e+01  5.0000e+01  5.0000e+01  5.0000e+01  5.0000e+01
  5.0000e+01  5.0000e+01  5.0000e+01  5.0000e+01  5.0000e+01  5.0000e+01  5.0000e+01  5.0000e+01  5.0000e+01
  5.0000e+01  5.0000e+01  5.0000e+01  5.0000e+01  5.0000e+01  5.0000e+01  5.0000e+01  5.0000e+01  5.0000e+01
  5.0000e+01  5.0000e+01  5.0000e+01  5.0000e+01  5.0000e+01  5.0000e+01  5.0000e+01  5.0000e+01  5.0000e+01
  5.0000e+01  5.0000e+01  5.0000e+01  5.0000e+01  5.0000e+01  5.0000e+01  5.0000e+01  5.0000e+01  5.0000e+01
  5.0000e+01  5.0000e+01  5.0000e+01  5.0000e+01  5.0000e+01  5.0000e+01  5.0000e+01  5.0000e+01  5.0000e+01
  5.0000e+01  5.0000e+01  5.0000e+01  5.0000e+01  5.0000e+01  5.0000e+01  5.0000e+01  5.0000e+01  5.0000e+01
        11   1.00000(10e12.4)                   -1     PRIMARY STORAGE Layer   1
  1.0000e-01  1.0000e-01  1.0000e-01  1.0000e-01  1.0000e-01  1.0000e-01  1.0000e-01  1.0000e-01  1.0000e-01
  1.0000e-01  1.0000e-01  1.0000e-01  1.0000e-01  1.0000e-01  1.0000e-01  1.0000e-01  1.0000e-01  1.0000e-01
  1.0000e-01  1.0000e-01  1.0000e-01  1.0000e-01  1.0000e-01  1.0000e-01  1.0000e-01  1.0000e-01  1.0000e-01
  1.0000e-01  1.0000e-01  1.0000e-01  1.0000e-01  1.0000e-01  1.0000e-01  1.0000e-01  1.0000e-01  1.0000e-01
  1.0000e-01  1.0000e-01  1.0000e-01  1.0000e-01  1.0000e-01  1.0000e-01  1.0000e-01  1.0000e-01  1.0000e-01
  1.0000e-01  1.0000e-01  1.0000e-01  1.0000e-01  1.0000e-01  1.0000e-01  1.0000e-01  1.0000e-01  1.0000e-01
  1.0000e-01  1.0000e-01  1.0000e-01  1.0000e-01  1.0000e-01  1.0000e-01  1.0000e-01  1.0000e-01  1.0000e-01
  1.0000e-01  1.0000e-01  1.0000e-01  1.0000e-01  1.0000e-01  1.0000e-01  1.0000e-01  1.0000e-01  1.0000e-01
  1.0000e-01  1.0000e-01  1.0000e-01  1.0000e-01  1.0000e-01  1.0000e-01  1.0000e-01  1.0000e-01  1.0000e-01
  1.0000e-01  1.0000e-01  1.0000e-01  1.0000e-01  1.0000e-01  1.0000e-01  1.0000e-01  1.0000e-01  1.0000e-01
  1.0000e-01  1.0000e-01  1.0000e-01  1.0000e-01  1.0000e-01  1.0000e-01  1.0000e-01  1.0000e-01  1.0000e-01
  1.0000e-01  1.0000e-01  1.0000e-01  1.0000e-01  1.0000e-01  1.0000e-01  1.0000e-01  1.0000e-01  1.0000e-01
  1.0000e-01  1.0000e-01  1.0000e-01  1.0000e-01  1.0000e-01  1.0000e-01  1.0000e-01  1.0000e-01  1.0000e-01
  1.0000e-01  1.0000e-01  1.0000e-01  1.0000e-01  1.0000e-01  1.0000e-01  1.0000e-01  1.0000e-01  1.0000e-01
  1.0000e-01  1.0000e-01  1.0000e-01  1.0000e-01  1.0000e-01  1.0000e-01  1.0000e-01  1.0000e-01  1.0000e-01
  1.0000e-01  1.0000e-01  1.0000e-01  1.0000e-01  1.0000e-01  1.0000e-01  1.0000e-01  1.0000e-01  1.0000e-01
  1.0000e-01  1.0000e-01  1.0000e-01  1.0000e-01  1.0000e-01  1.0000e-01  1.0000e-01  1.0000e-01  1.0000e-01
  1.0000e-01  1.0000e-01  1.0000e-01  1.0000e-01  1.0000e-01  1.0000e-01  1.0000e-01  1.0000e-01  1.0000e-01
  1.0000e-01  1.0000e-01  1.0000e-01  1.0000e-01  1.0000e-01  1.0000e-01  1.0000e-01  1.0000e-01  1.0000e-01
  1.0000e-01  1.0000e-01  1.0000e-01  1.0000e-01  1.0000e-01  1.0000e-01  1.0000e-01  1.0000e-01  1.0000e-01
  1.0000e-01  1.0000e-01  1.0000e-01  1.0000e-01  1.0000e-01  1.0000e-01  1.0000e-01  1.0000e-01  1.0000e-01
        11   1.00000(10e12.4)                   -1     Sy Layer   1
  1.0000e-01  1.0000e-01  1.0000e-01  1.0000e-01  1.0000e-01  1.0000e-01  1.0000e-01  1.0000e-01  1.0000e-01
  1.0000e-01  1.0000e-01  1.0000e-01  1.0000e-01  1.0000e-01  1.0000e-01  1.0000e-01  1.0000e-01  1.0000e-01
  1.0000e-01  1.0000e-01  1.0000e-01  1.0000e-01  1.0000e-01  1.0000e-01  1.0000e-01  1.0000e-01  1.0000e-01
  1.0000e-01  1.0000e-01  1.0000e-01  1.0000e-01  1.0000e-01  1.0000e-01  1.0000e-01  1.0000e-01  1.0000e-01
  1.0000e-01  1.0000e-01  1.0000e-01  1.0000e-01  1.0000e-01  1.0000e-01  1.0000e-01  1.0000e-01  1.0000e-01
  1.0000e-01  1.0000e-01  1.0000e-01  1.0000e-01  1.0000e-01  1.0000e-01  1.0000e-01  1.0000e-01  1.0000e-01
  1.0000e-01  1.0000e-01  1.0000e-01  1.0000e-01  1.0000e-01  1.0000e-01  1.0000e-01  1.0000e-01  1.0000e-01
  1.0000e-01  1.0000e-01  1.0000e-01  1.0000e-01  1.0000e-01  1.0000e-01  1.0000e-01  1.0000e-01  1.0000e-01
  1.0000e-01  1.0000e-01  1.0000e-01  1.0000e-01  1.0000e-01  1.0000e-01  1.0000e-01  1.0000e-01  1.0000e-01
  1.0000e-01  1.0000e-01  1.0000e-01  1.0000e-01  1.0000e-01  1.0000e-01  1.0000e-01  1.0000e-01  1.0000e-01
  1.0000e-01  1.0000e-01  1.0000e-01  1.0000e-01  1.0000e-01  1.0000e-01  1.0000e-01  1.0000e-01  1.0000e-01
  1.0000e-01  1.0000e-01  1.0000e-01  1.0000e-01  1.0000e-01  1.0000e-01  1.0000e-01  1.0000e-01  1.0000e-01
  1.0000e-01  1.0000e-01  1.0000e-01  1.0000e-01  1.0000e-01  1.0000e-01  1.0000e-01  1.0000e-01  1.0000e-01
  1.0000e-01  1.0000e-01  1.0000e-01  1.0000e-01  1.0000e-01  1.0000e-01  1.0000e-01  1.0000e-01  1.0000e-01
  1.0000e-01  1.0000e-01  1.0000e-01  1.0000e-01  1.0000e-01  1.0000e-01  1.0000e-01  1.0000e-01  1.0000e-01
  1.0000e-01  1.0000e-01  1.0000e-01  1.0000e-01  1.0000e-01  1.0000e-01  1.0000e-01  1.0000e-01  1.0000e-01
  1.0000e-01  1.0000e-01  1.0000e-01  1.0000e-01  1.0000e-01  1.0000e-01  1.0000e-01  1.0000e-01  1.0000e-01
  1.0000e-01  1.0000e-01  1.0000e-01  1.0000e-01  1.0000e-01  1.0000e-01  1.0000e-01  1.0000e-01  1.0000e-01
  1.0000e-01  1.0000e-01  1.0000e-01  1.0000e-01  1.0000e-01  1.0000e-01  1.0000e-01  1.0000e-01  1.0000e-01
  1.0000e-01  1.0000e-01  1.0000e-01  1.0000e-01  1.0000e-01  1.0000e-01  1.0000e-01  1.0000e-01  1.0000e-01
  1.0000e-01  1.0000e-01  1.0000e-01  1.0000e-01  1.0000e-01  1.0000e-01  1.0000e-01  1.0000e-01  1.0000e-01
