# MODFLOW2000 Basic Package
#MODFLOW Data Set Created by Groundwater Vistas
#   
SHOWPROGRESS 
         1         1(25I3)                      -1     IBOUND Layer   1
 -1 -1 -1 -1 -1 -1 -1 -1 -1
  1  1  1  1  1  1  1  1  1
  1  1  1  1  1  1  1  1  1
  1  1  1  1  1  1  1  1  1
  1  1  1  1  1  1  1  1  1
  1  1  1  1  1  1  1  1  1
  1  1  1  1  1  1  1  1  1
  1  1  1  1  1  1  1  1  1
  1  1  1  1  1  1  1  1  1
  1  1  1  1  1  1  1  1  1
  1  1  1  1  1  1  1  1  1
  1  1  1  1  1  1  1  1  1
  1  1  1  1  1  1  1  1  1
  1  1  1  1  1  1  1  1  1
  1  1  1  1  1  1  1  1  1
  1  1  1  1  1  1  1  1  1
  1  1  1  1  1  1  1  1  1
  1  1  1  1  1  1  1  1  1
  1  1  1  1  1  1  1  1  1
  1  1  1  1  1  1  1  1  1
 -1 -1 -1 -1 -1 -1 -1 -1 -1
9.9900e+02
         1   1.00000(10e12.4)                   -1     STARTING HEADS Layer   1
  1.0000e+03  1.0000e+03  1.0000e+03  1.0000e+03  1.0000e+03  1.0000e+03  1.0000e+03  1.0000e+03  1.0000e+03
  1.1000e+03  1.1000e+03  1.1000e+03  1.1000e+03  1.1000e+03  1.1000e+03  1.1000e+03  1.1000e+03  1.1000e+03
  1.1000e+03  1.1000e+03  1.1000e+03  1.1000e+03  1.1000e+03  1.1000e+03  1.1000e+03  1.1000e+03  1.1000e+03
  1.1000e+03  1.1000e+03  1.1000e+03  1.1000e+03  1.1000e+03  1.1000e+03  1.1000e+03  1.1000e+03  1.1000e+03
  1.1000e+03  1.1000e+03  1.1000e+03  1.1000e+03  1.1000e+03  1.1000e+03  1.1000e+03  1.1000e+03  1.1000e+03
  1.1000e+03  1.1000e+03  1.1000e+03  1.1000e+03  1.1000e+03  1.1000e+03  1.1000e+03  1.1000e+03  1.1000e+03
  1.1000e+03  1.1000e+03  1.1000e+03  1.1000e+03  1.1000e+03  1.1000e+03  1.1000e+03  1.1000e+03  1.1000e+03
  1.1000e+03  1.1000e+03  1.1000e+03  1.1000e+03  1.1000e+03  1.1000e+03  1.1000e+03  1.1000e+03  1.1000e+03
  1.1000e+03  1.1000e+03  1.1000e+03  1.1000e+03  1.1000e+03  1.1000e+03  1.1000e+03  1.1000e+03  1.1000e+03
  1.1000e+03  1.1000e+03  1.1000e+03  1.1000e+03  1.1000e+03  1.1000e+03  1.1000e+03  1.1000e+03  1.1000e+03
  1.1000e+03  1.1000e+03  1.1000e+03  1.1000e+03  1.1000e+03  1.1000e+03  1.1000e+03  1.1000e+03  1.1000e+03
  1.1000e+03  1.1000e+03  1.1000e+03  1.1000e+03  1.1000e+03  1.1000e+03  1.1000e+03  1.1000e+03  1.1000e+03
  1.1000e+03  1.1000e+03  1.1000e+03  1.1000e+03  1.1000e+03  1.1000e+03  1.1000e+03  1.1000e+03  1.1000e+03
  1.1000e+03  1.1000e+03  1.1000e+03  1.1000e+03  1.1000e+03  1.1000e+03  1.1000e+03  1.1000e+03  1.1000e+03
  1.1000e+03  1.1000e+03  1.1000e+03  1.1000e+03  1.1000e+03  1.1000e+03  1.1000e+03  1.1000e+03  1.1000e+03
  1.1000e+03  1.1000e+03  1.1000e+03  1.1000e+03  1.1000e+03  1.1000e+03  1.1000e+03  1.1000e+03  1.1000e+03
  1.1000e+03  1.1000e+03  1.1000e+03  1.1000e+03  1.1000e+03  1.1000e+03  1.1000e+03  1.1000e+03  1.1000e+03
  1.1000e+03  1.1000e+03  1.1000e+03  1.1000e+03  1.1000e+03  1.1000e+03  1.1000e+03  1.1000e+03  1.1000e+03
  1.1000e+03  1.1000e+03  1.1000e+03  1.1000e+03  1.1000e+03  1.1000e+03  1.1000e+03  1.1000e+03  1.1000e+03
  1.1000e+03  1.1000e+03  1.1000e+03  1.1000e+03  1.1000e+03  1.1000e+03  1.1000e+03  1.1000e+03  1.1000e+03
  1.0000e+03  1.0000e+03  1.0000e+03  1.0000e+03  1.0000e+03  1.0000e+03  1.0000e+03  1.0000e+03  1.0000e+03
