# MODFLOW2000 Discretization File
 1  21  9  25  4  0
 0
         0  500.0000(10E12.4)                    0     DELTA-X or C
         0  500.0000(10E12.4)                    0     DELTA-Y or R
         0 1100.0000(10e12.4)                   -1     TOP of Model
         0  980.0000(10e12.4)                   -1     BOTTOM of Layer   1
  1.000000  1  1.200000  SS
  31.000000  8  1.200000  TR
  28.000000  8  1.200000  TR
  31.000000  8  1.200000  TR
  30.000000  8  1.200000  TR
  31.000000  8  1.200000  TR
  30.000000  8  1.200000  TR
  31.000000  8  1.200000  TR
  31.000000  8  1.200000  TR
  30.000000  8  1.200000  TR
  31.000000  8  1.200000  TR
  30.000000  8  1.200000  TR
  31.000000  8  1.200000  TR
  31.000000  8  1.200000  TR
  28.000000  8  1.200000  TR
  31.000000  8  1.200000  TR
  30.000000  8  1.200000  TR
  31.000000  8  1.200000  TR
  30.000000  8  1.200000  TR
  31.000000  8  1.200000  TR
  31.000000  8  1.200000  TR
  30.000000  8  1.200000  TR
  31.000000  8  1.200000  TR
  30.000000  8  1.200000  TR
  31.000000  8  1.200000  TR
