# MODFLOW2000 Well Package
         3        50   AUX IFACE
         3         0               Stress Period 1
         1         5         5 0.000e+00         0  
         1        11         5 0.000e+00         0
         1         5         5 0.000e+00         0
         3         0               Stress Period 2
         1         5         5 0.000e+00         0  
         1        11         5 0.000e+00         0
         1         5         5 0.000e+00         0
         3         0               Stress Period 3
         1         5         5 0.000e+00         0  
         1        11         5 0.000e+00         0
         1         5         5 0.000e+00         0
         3         0               Stress Period 4
         1         5         5 0.000e+00         0  
         1        11         5 0.000e+00         0
         1         5         5 0.000e+00         0
         3         0               Stress Period 5
         1         5         5 0.000e+00         0  
         1        11         5 0.000e+00         0
         1         5         5 0.000e+00         0
         3         0               Stress Period 6
         1         5         5 0.000e+00         0  
         1        11         5 0.000e+00         0
         1         5         5 0.000e+00         0
         3         0               Stress Period 7
         1         5         5 0.000e+00         0  
         1        11         5 0.000e+00         0
         1         5         5 0.000e+00         0
         3         0               Stress Period 8
         1         5         5 0.000e+00         0  
         1        11         5 0.000e+00         0
         1         5         5 0.000e+00         0
         3         0               Stress Period 9
         1         5         5 0.000e+00         0  
         1        11         5 0.000e+00         0
         1         5         5 0.000e+00         0
         3         0               Stress Period 10
         1         5         5 0.000e+00         0  
         1        11         5 0.000e+00         0
         1         5         5 0.000e+00         0
         3         0               Stress Period 11
         1         5         5 0.000e+00         0  
         1        11         5 0.000e+00         0
         1         5         5 0.000e+00         0
         3         0               Stress Period 12
         1         5         5 0.000e+00         0  
         1        11         5 0.000e+00         0
         1         5         5 0.000e+00         0
         3         0               Stress Period 13
         1         5         5 0.000e+00         0  
         1        11         5 0.000e+00         0
         1         5         5 0.000e+00         0
         3         0               Stress Period 14
         1         5         5-20000.000         0  
         1        11         5 0.000e+00         0
         1         5         5 0.000e+00         0
         3         0               Stress Period 15
         1         5         5-20000.000         0  
         1        11         5 0.000e+00         0
         1         5         5 0.000e+00         0
         3         0               Stress Period 16
         1         5         5-20000.000         0  
         1        11         5 0.000e+00         0
         1         5         5 0.000e+00         0
         3         0               Stress Period 17
         1         5         5-20000.000         0  
         1        11         5 0.000e+00         0
         1         5         5 0.000e+00         0
         3         0               Stress Period 18
         1         5         5-20000.000         0  
         1        11         5 0.000e+00         0
         1         5         5 0.000e+00         0
         3         0               Stress Period 19
         1         5         5-20000.000         0  
         1        11         5 0.000e+00         0
         1         5         5 0.000e+00         0
         3         0               Stress Period 20
         1         5         5-20000.000         0  
         1        11         5 0.000e+00         0
         1         5         5 0.000e+00         0
         3         0               Stress Period 21
         1         5         5-20000.000         0  
         1        11         5 0.000e+00         0
         1         5         5 0.000e+00         0
         3         0               Stress Period 22
         1         5         5-20000.000         0  
         1        11         5 0.000e+00         0
         1         5         5 0.000e+00         0
         3         0               Stress Period 23
         1         5         5-20000.000         0  
         1        11         5 0.000e+00         0
         1         5         5 0.000e+00         0
         3         0               Stress Period 24
         1         5         5-20000.000         0  
         1        11         5 0.000e+00         0
         1         5         5 0.000e+00         0
         3         0               Stress Period 25
         1         5         5-20000.000         0  
         1        11         5 0.000e+00         0
         1         5         5 0.000e+00         0
