# File generated by Flopy version 3.5.0 on 02/25/2024 at 12:29:34.
BEGIN Options
END Options

BEGIN TIMING
  TDIS6  mumodel.tdis
END TIMING

BEGIN MODELS
  gwf6  mumodel.nam  mumodel
END MODELS

BEGIN EXCHANGES
END EXCHANGES

BEGIN SOLUTIONGROUP  1
  MXITER  1
  ims6  mumodel.ims  mumodel
END SOLUTIONGROUP  1

