# File generated by Flopy version 3.5.0 on 02/25/2024 at 12:29:34.
BEGIN Options
  PRINT_INPUT
  PRINT_FLOWS
END Options

BEGIN Dimensions
  MAXBOUND  18
END Dimensions

BEGIN PERIOD  1
  1 1 1 1.00000000E+03
  1 1 2 1.00000000E+03
  1 1 3 1.00000000E+03
  1 1 4 1.00000000E+03
  1 1 5 1.00000000E+03
  1 1 6 1.00000000E+03
  1 1 7 1.00000000E+03
  1 1 8 1.00000000E+03
  1 1 9 1.00000000E+03
  1 21 1 1.00000000E+03
  1 21 2 1.00000000E+03
  1 21 3 1.00000000E+03
  1 21 4 1.00000000E+03
  1 21 5 1.00000000E+03
  1 21 6 1.00000000E+03
  1 21 7 1.00000000E+03
  1 21 8 1.00000000E+03
  1 21 9 1.00000000E+03
END PERIOD  1

