# File generated by Flopy version 3.5.0 on 02/25/2024 at 12:29:34.
BEGIN Options
  LENGTH_UNITS  undefined
END Options

BEGIN Dimensions
  NLAY  1
  NROW  21
  NCOL  9
END Dimensions

BEGIN GRIDDATA
  delr
    CONSTANT     500.00000000
  delc
    CONSTANT     500.00000000
  top
    CONSTANT    1100.00000000
  botm  LAYERED
    CONSTANT     980.00000000
END GRIDDATA

