# File generated by Flopy version 3.5.0 on 02/25/2024 at 12:29:51.
BEGIN Options
  READASARRAYS
  SAVE_FLOWS
END Options

BEGIN PERIOD  1
  recharge
    INTERNAL  FACTOR  1.0
         0.00220800       0.00220800       0.00220800       0.00220800       0.00220800       0.00220800       0.00220800       0.00220800       0.00220800
         0.00220800       0.00220800       0.00220800       0.00220800       0.00220800       0.00220800       0.00220800       0.00220800       0.00220800
         0.00220800       0.00220800       0.00220800       0.00220800       0.00220800       0.00220800       0.00220800       0.00220800       0.00220800
         0.00220800       0.00220800       0.00220800       0.00220800       0.00220800       0.00220800       0.00220800       0.00220800       0.00220800
         0.00220800       0.00220800       0.00220800       0.00220800       0.00220800       0.00220800       0.00220800       0.00220800       0.00220800
         0.00220800       0.00220800       0.00220800       0.00220800       0.00220800       0.00220800       0.00220800       0.00220800       0.00220800
         0.00220800       0.00220800       0.00220800       0.00220800       0.00220800       0.00220800       0.00220800       0.00220800       0.00220800
         0.00220800       0.00220800       0.00220800       0.00220800       0.00220800       0.00220800       0.00220800       0.00220800       0.00220800
         0.00220800       0.00220800       0.00220800       0.00220800       0.00220800       0.00220800       0.00220800       0.00220800       0.00220800
         0.00220800       0.00220800       0.00220800       0.00220800       0.00220800       0.00220800       0.00220800       0.00220800       0.00220800
         0.00220800       0.00220800       0.00220800       0.00220800       0.00220800       0.00220800       0.00220800       0.00220800       0.00220800
         0.00220800       0.00220800       0.00220800       0.00220800       0.00220800       0.00220800       0.00220800       0.00220800       0.00220800
         0.00220800       0.00220800       0.00220800       0.00220800       0.00220800       0.00220800       0.00220800       0.00220800       0.00220800
         0.00220800       0.00220800       0.00220800       0.00220800       0.00220800       0.00220800       0.00220800       0.00220800       0.00220800
         0.00220800       0.00220800       0.00220800       0.00220800       0.00220800       0.00220800       0.00220800       0.00220800       0.00220800
         0.00220800       0.00220800       0.00220800       0.00220800       0.00220800       0.00220800       0.00220800       0.00220800       0.00220800
         0.00220800       0.00220800       0.00220800       0.00220800       0.00220800       0.00220800       0.00220800       0.00220800       0.00220800
         0.00220800       0.00220800       0.00220800       0.00220800       0.00220800       0.00220800       0.00220800       0.00220800       0.00220800
         0.00220800       0.00220800       0.00220800       0.00220800       0.00220800       0.00220800       0.00220800       0.00220800       0.00220800
         0.00220800       0.00220800       0.00220800       0.00220800       0.00220800       0.00220800       0.00220800       0.00220800       0.00220800
         0.00220800       0.00220800       0.00220800       0.00220800       0.00220800       0.00220800       0.00220800       0.00220800       0.00220800
END PERIOD  1

BEGIN PERIOD  2
  recharge
    INTERNAL  FACTOR  1.0
         0.00200000       0.00200000       0.00200000       0.00200000       0.00200000       0.00200000       0.00200000       0.00200000       0.00200000
         0.00200000       0.00200000       0.00200000       0.00200000       0.00200000       0.00200000       0.00200000       0.00200000       0.00200000
         0.00200000       0.00200000       0.00200000       0.00200000       0.00200000       0.00200000       0.00200000       0.00200000       0.00200000
         0.00200000       0.00200000       0.00200000       0.00200000       0.00200000       0.00200000       0.00200000       0.00200000       0.00200000
         0.00200000       0.00200000       0.00200000       0.00200000       0.00200000       0.00200000       0.00200000       0.00200000       0.00200000
         0.00200000       0.00200000       0.00200000       0.00200000       0.00200000       0.00200000       0.00200000       0.00200000       0.00200000
         0.00200000       0.00200000       0.00200000       0.00200000       0.00200000       0.00200000       0.00200000       0.00200000       0.00200000
         0.00200000       0.00200000       0.00200000       0.00200000       0.00200000       0.00200000       0.00200000       0.00200000       0.00200000
         0.00200000       0.00200000       0.00200000       0.00200000       0.00200000       0.00200000       0.00200000       0.00200000       0.00200000
         0.00200000       0.00200000       0.00200000       0.00200000       0.00200000       0.00200000       0.00200000       0.00200000       0.00200000
         0.00200000       0.00200000       0.00200000       0.00200000       0.00200000       0.00200000       0.00200000       0.00200000       0.00200000
         0.00200000       0.00200000       0.00200000       0.00200000       0.00200000       0.00200000       0.00200000       0.00200000       0.00200000
         0.00200000       0.00200000       0.00200000       0.00200000       0.00200000       0.00200000       0.00200000       0.00200000       0.00200000
         0.00200000       0.00200000       0.00200000       0.00200000       0.00200000       0.00200000       0.00200000       0.00200000       0.00200000
         0.00200000       0.00200000       0.00200000       0.00200000       0.00200000       0.00200000       0.00200000       0.00200000       0.00200000
         0.00200000       0.00200000       0.00200000       0.00200000       0.00200000       0.00200000       0.00200000       0.00200000       0.00200000
         0.00200000       0.00200000       0.00200000       0.00200000       0.00200000       0.00200000       0.00200000       0.00200000       0.00200000
         0.00200000       0.00200000       0.00200000       0.00200000       0.00200000       0.00200000       0.00200000       0.00200000       0.00200000
         0.00200000       0.00200000       0.00200000       0.00200000       0.00200000       0.00200000       0.00200000       0.00200000       0.00200000
         0.00200000       0.00200000       0.00200000       0.00200000       0.00200000       0.00200000       0.00200000       0.00200000       0.00200000
         0.00200000       0.00200000       0.00200000       0.00200000       0.00200000       0.00200000       0.00200000       0.00200000       0.00200000
END PERIOD  2

BEGIN PERIOD  3
  recharge
    INTERNAL  FACTOR  1.0
         0.00600000       0.00600000       0.00600000       0.00600000       0.00600000       0.00600000       0.00600000       0.00600000       0.00600000
         0.00600000       0.00600000       0.00600000       0.00600000       0.00600000       0.00600000       0.00600000       0.00600000       0.00600000
         0.00600000       0.00600000       0.00600000       0.00600000       0.00600000       0.00600000       0.00600000       0.00600000       0.00600000
         0.00600000       0.00600000       0.00600000       0.00600000       0.00600000       0.00600000       0.00600000       0.00600000       0.00600000
         0.00600000       0.00600000       0.00600000       0.00600000       0.00600000       0.00600000       0.00600000       0.00600000       0.00600000
         0.00600000       0.00600000       0.00600000       0.00600000       0.00600000       0.00600000       0.00600000       0.00600000       0.00600000
         0.00600000       0.00600000       0.00600000       0.00600000       0.00600000       0.00600000       0.00600000       0.00600000       0.00600000
         0.00600000       0.00600000       0.00600000       0.00600000       0.00600000       0.00600000       0.00600000       0.00600000       0.00600000
         0.00600000       0.00600000       0.00600000       0.00600000       0.00600000       0.00600000       0.00600000       0.00600000       0.00600000
         0.00600000       0.00600000       0.00600000       0.00600000       0.00600000       0.00600000       0.00600000       0.00600000       0.00600000
         0.00600000       0.00600000       0.00600000       0.00600000       0.00600000       0.00600000       0.00600000       0.00600000       0.00600000
         0.00600000       0.00600000       0.00600000       0.00600000       0.00600000       0.00600000       0.00600000       0.00600000       0.00600000
         0.00600000       0.00600000       0.00600000       0.00600000       0.00600000       0.00600000       0.00600000       0.00600000       0.00600000
         0.00600000       0.00600000       0.00600000       0.00600000       0.00600000       0.00600000       0.00600000       0.00600000       0.00600000
         0.00600000       0.00600000       0.00600000       0.00600000       0.00600000       0.00600000       0.00600000       0.00600000       0.00600000
         0.00600000       0.00600000       0.00600000       0.00600000       0.00600000       0.00600000       0.00600000       0.00600000       0.00600000
         0.00600000       0.00600000       0.00600000       0.00600000       0.00600000       0.00600000       0.00600000       0.00600000       0.00600000
         0.00600000       0.00600000       0.00600000       0.00600000       0.00600000       0.00600000       0.00600000       0.00600000       0.00600000
         0.00600000       0.00600000       0.00600000       0.00600000       0.00600000       0.00600000       0.00600000       0.00600000       0.00600000
         0.00600000       0.00600000       0.00600000       0.00600000       0.00600000       0.00600000       0.00600000       0.00600000       0.00600000
         0.00600000       0.00600000       0.00600000       0.00600000       0.00600000       0.00600000       0.00600000       0.00600000       0.00600000
END PERIOD  3

BEGIN PERIOD  4
  recharge
    INTERNAL  FACTOR  1.0
         0.00800000       0.00800000       0.00800000       0.00800000       0.00800000       0.00800000       0.00800000       0.00800000       0.00800000
         0.00800000       0.00800000       0.00800000       0.00800000       0.00800000       0.00800000       0.00800000       0.00800000       0.00800000
         0.00800000       0.00800000       0.00800000       0.00800000       0.00800000       0.00800000       0.00800000       0.00800000       0.00800000
         0.00800000       0.00800000       0.00800000       0.00800000       0.00800000       0.00800000       0.00800000       0.00800000       0.00800000
         0.00800000       0.00800000       0.00800000       0.00800000       0.00800000       0.00800000       0.00800000       0.00800000       0.00800000
         0.00800000       0.00800000       0.00800000       0.00800000       0.00800000       0.00800000       0.00800000       0.00800000       0.00800000
         0.00800000       0.00800000       0.00800000       0.00800000       0.00800000       0.00800000       0.00800000       0.00800000       0.00800000
         0.00800000       0.00800000       0.00800000       0.00800000       0.00800000       0.00800000       0.00800000       0.00800000       0.00800000
         0.00800000       0.00800000       0.00800000       0.00800000       0.00800000       0.00800000       0.00800000       0.00800000       0.00800000
         0.00800000       0.00800000       0.00800000       0.00800000       0.00800000       0.00800000       0.00800000       0.00800000       0.00800000
         0.00800000       0.00800000       0.00800000       0.00800000       0.00800000       0.00800000       0.00800000       0.00800000       0.00800000
         0.00800000       0.00800000       0.00800000       0.00800000       0.00800000       0.00800000       0.00800000       0.00800000       0.00800000
         0.00800000       0.00800000       0.00800000       0.00800000       0.00800000       0.00800000       0.00800000       0.00800000       0.00800000
         0.00800000       0.00800000       0.00800000       0.00800000       0.00800000       0.00800000       0.00800000       0.00800000       0.00800000
         0.00800000       0.00800000       0.00800000       0.00800000       0.00800000       0.00800000       0.00800000       0.00800000       0.00800000
         0.00800000       0.00800000       0.00800000       0.00800000       0.00800000       0.00800000       0.00800000       0.00800000       0.00800000
         0.00800000       0.00800000       0.00800000       0.00800000       0.00800000       0.00800000       0.00800000       0.00800000       0.00800000
         0.00800000       0.00800000       0.00800000       0.00800000       0.00800000       0.00800000       0.00800000       0.00800000       0.00800000
         0.00800000       0.00800000       0.00800000       0.00800000       0.00800000       0.00800000       0.00800000       0.00800000       0.00800000
         0.00800000       0.00800000       0.00800000       0.00800000       0.00800000       0.00800000       0.00800000       0.00800000       0.00800000
         0.00800000       0.00800000       0.00800000       0.00800000       0.00800000       0.00800000       0.00800000       0.00800000       0.00800000
END PERIOD  4

BEGIN PERIOD  5
  recharge
    INTERNAL  FACTOR  1.0
         0.00600000       0.00600000       0.00600000       0.00600000       0.00600000       0.00600000       0.00600000       0.00600000       0.00600000
         0.00600000       0.00600000       0.00600000       0.00600000       0.00600000       0.00600000       0.00600000       0.00600000       0.00600000
         0.00600000       0.00600000       0.00600000       0.00600000       0.00600000       0.00600000       0.00600000       0.00600000       0.00600000
         0.00600000       0.00600000       0.00600000       0.00600000       0.00600000       0.00600000       0.00600000       0.00600000       0.00600000
         0.00600000       0.00600000       0.00600000       0.00600000       0.00600000       0.00600000       0.00600000       0.00600000       0.00600000
         0.00600000       0.00600000       0.00600000       0.00600000       0.00600000       0.00600000       0.00600000       0.00600000       0.00600000
         0.00600000       0.00600000       0.00600000       0.00600000       0.00600000       0.00600000       0.00600000       0.00600000       0.00600000
         0.00600000       0.00600000       0.00600000       0.00600000       0.00600000       0.00600000       0.00600000       0.00600000       0.00600000
         0.00600000       0.00600000       0.00600000       0.00600000       0.00600000       0.00600000       0.00600000       0.00600000       0.00600000
         0.00600000       0.00600000       0.00600000       0.00600000       0.00600000       0.00600000       0.00600000       0.00600000       0.00600000
         0.00600000       0.00600000       0.00600000       0.00600000       0.00600000       0.00600000       0.00600000       0.00600000       0.00600000
         0.00600000       0.00600000       0.00600000       0.00600000       0.00600000       0.00600000       0.00600000       0.00600000       0.00600000
         0.00600000       0.00600000       0.00600000       0.00600000       0.00600000       0.00600000       0.00600000       0.00600000       0.00600000
         0.00600000       0.00600000       0.00600000       0.00600000       0.00600000       0.00600000       0.00600000       0.00600000       0.00600000
         0.00600000       0.00600000       0.00600000       0.00600000       0.00600000       0.00600000       0.00600000       0.00600000       0.00600000
         0.00600000       0.00600000       0.00600000       0.00600000       0.00600000       0.00600000       0.00600000       0.00600000       0.00600000
         0.00600000       0.00600000       0.00600000       0.00600000       0.00600000       0.00600000       0.00600000       0.00600000       0.00600000
         0.00600000       0.00600000       0.00600000       0.00600000       0.00600000       0.00600000       0.00600000       0.00600000       0.00600000
         0.00600000       0.00600000       0.00600000       0.00600000       0.00600000       0.00600000       0.00600000       0.00600000       0.00600000
         0.00600000       0.00600000       0.00600000       0.00600000       0.00600000       0.00600000       0.00600000       0.00600000       0.00600000
         0.00600000       0.00600000       0.00600000       0.00600000       0.00600000       0.00600000       0.00600000       0.00600000       0.00600000
END PERIOD  5

BEGIN PERIOD  6
  recharge
    INTERNAL  FACTOR  1.0
         0.00200000       0.00200000       0.00200000       0.00200000       0.00200000       0.00200000       0.00200000       0.00200000       0.00200000
         0.00200000       0.00200000       0.00200000       0.00200000       0.00200000       0.00200000       0.00200000       0.00200000       0.00200000
         0.00200000       0.00200000       0.00200000       0.00200000       0.00200000       0.00200000       0.00200000       0.00200000       0.00200000
         0.00200000       0.00200000       0.00200000       0.00200000       0.00200000       0.00200000       0.00200000       0.00200000       0.00200000
         0.00200000       0.00200000       0.00200000       0.00200000       0.00200000       0.00200000       0.00200000       0.00200000       0.00200000
         0.00200000       0.00200000       0.00200000       0.00200000       0.00200000       0.00200000       0.00200000       0.00200000       0.00200000
         0.00200000       0.00200000       0.00200000       0.00200000       0.00200000       0.00200000       0.00200000       0.00200000       0.00200000
         0.00200000       0.00200000       0.00200000       0.00200000       0.00200000       0.00200000       0.00200000       0.00200000       0.00200000
         0.00200000       0.00200000       0.00200000       0.00200000       0.00200000       0.00200000       0.00200000       0.00200000       0.00200000
         0.00200000       0.00200000       0.00200000       0.00200000       0.00200000       0.00200000       0.00200000       0.00200000       0.00200000
         0.00200000       0.00200000       0.00200000       0.00200000       0.00200000       0.00200000       0.00200000       0.00200000       0.00200000
         0.00200000       0.00200000       0.00200000       0.00200000       0.00200000       0.00200000       0.00200000       0.00200000       0.00200000
         0.00200000       0.00200000       0.00200000       0.00200000       0.00200000       0.00200000       0.00200000       0.00200000       0.00200000
         0.00200000       0.00200000       0.00200000       0.00200000       0.00200000       0.00200000       0.00200000       0.00200000       0.00200000
         0.00200000       0.00200000       0.00200000       0.00200000       0.00200000       0.00200000       0.00200000       0.00200000       0.00200000
         0.00200000       0.00200000       0.00200000       0.00200000       0.00200000       0.00200000       0.00200000       0.00200000       0.00200000
         0.00200000       0.00200000       0.00200000       0.00200000       0.00200000       0.00200000       0.00200000       0.00200000       0.00200000
         0.00200000       0.00200000       0.00200000       0.00200000       0.00200000       0.00200000       0.00200000       0.00200000       0.00200000
         0.00200000       0.00200000       0.00200000       0.00200000       0.00200000       0.00200000       0.00200000       0.00200000       0.00200000
         0.00200000       0.00200000       0.00200000       0.00200000       0.00200000       0.00200000       0.00200000       0.00200000       0.00200000
         0.00200000       0.00200000       0.00200000       0.00200000       0.00200000       0.00200000       0.00200000       0.00200000       0.00200000
END PERIOD  6

BEGIN PERIOD  7
  recharge
    INTERNAL  FACTOR  1.0
         0.00100000       0.00100000       0.00100000       0.00100000       0.00100000       0.00100000       0.00100000       0.00100000       0.00100000
         0.00100000       0.00100000       0.00100000       0.00100000       0.00100000       0.00100000       0.00100000       0.00100000       0.00100000
         0.00100000       0.00100000       0.00100000       0.00100000       0.00100000       0.00100000       0.00100000       0.00100000       0.00100000
         0.00100000       0.00100000       0.00100000       0.00100000       0.00100000       0.00100000       0.00100000       0.00100000       0.00100000
         0.00100000       0.00100000       0.00100000       0.00100000       0.00100000       0.00100000       0.00100000       0.00100000       0.00100000
         0.00100000       0.00100000       0.00100000       0.00100000       0.00100000       0.00100000       0.00100000       0.00100000       0.00100000
         0.00100000       0.00100000       0.00100000       0.00100000       0.00100000       0.00100000       0.00100000       0.00100000       0.00100000
         0.00100000       0.00100000       0.00100000       0.00100000       0.00100000       0.00100000       0.00100000       0.00100000       0.00100000
         0.00100000       0.00100000       0.00100000       0.00100000       0.00100000       0.00100000       0.00100000       0.00100000       0.00100000
         0.00100000       0.00100000       0.00100000       0.00100000       0.00100000       0.00100000       0.00100000       0.00100000       0.00100000
         0.00100000       0.00100000       0.00100000       0.00100000       0.00100000       0.00100000       0.00100000       0.00100000       0.00100000
         0.00100000       0.00100000       0.00100000       0.00100000       0.00100000       0.00100000       0.00100000       0.00100000       0.00100000
         0.00100000       0.00100000       0.00100000       0.00100000       0.00100000       0.00100000       0.00100000       0.00100000       0.00100000
         0.00100000       0.00100000       0.00100000       0.00100000       0.00100000       0.00100000       0.00100000       0.00100000       0.00100000
         0.00100000       0.00100000       0.00100000       0.00100000       0.00100000       0.00100000       0.00100000       0.00100000       0.00100000
         0.00100000       0.00100000       0.00100000       0.00100000       0.00100000       0.00100000       0.00100000       0.00100000       0.00100000
         0.00100000       0.00100000       0.00100000       0.00100000       0.00100000       0.00100000       0.00100000       0.00100000       0.00100000
         0.00100000       0.00100000       0.00100000       0.00100000       0.00100000       0.00100000       0.00100000       0.00100000       0.00100000
         0.00100000       0.00100000       0.00100000       0.00100000       0.00100000       0.00100000       0.00100000       0.00100000       0.00100000
         0.00100000       0.00100000       0.00100000       0.00100000       0.00100000       0.00100000       0.00100000       0.00100000       0.00100000
         0.00100000       0.00100000       0.00100000       0.00100000       0.00100000       0.00100000       0.00100000       0.00100000       0.00100000
END PERIOD  7

BEGIN PERIOD  8
  recharge
    INTERNAL  FACTOR  1.0
    1.00000000E-04  1.00000000E-04  1.00000000E-04  1.00000000E-04  1.00000000E-04  1.00000000E-04  1.00000000E-04  1.00000000E-04  1.00000000E-04
    1.00000000E-04  1.00000000E-04  1.00000000E-04  1.00000000E-04  1.00000000E-04  1.00000000E-04  1.00000000E-04  1.00000000E-04  1.00000000E-04
    1.00000000E-04  1.00000000E-04  1.00000000E-04  1.00000000E-04  1.00000000E-04  1.00000000E-04  1.00000000E-04  1.00000000E-04  1.00000000E-04
    1.00000000E-04  1.00000000E-04  1.00000000E-04  1.00000000E-04  1.00000000E-04  1.00000000E-04  1.00000000E-04  1.00000000E-04  1.00000000E-04
    1.00000000E-04  1.00000000E-04  1.00000000E-04  1.00000000E-04  1.00000000E-04  1.00000000E-04  1.00000000E-04  1.00000000E-04  1.00000000E-04
    1.00000000E-04  1.00000000E-04  1.00000000E-04  1.00000000E-04  1.00000000E-04  1.00000000E-04  1.00000000E-04  1.00000000E-04  1.00000000E-04
    1.00000000E-04  1.00000000E-04  1.00000000E-04  1.00000000E-04  1.00000000E-04  1.00000000E-04  1.00000000E-04  1.00000000E-04  1.00000000E-04
    1.00000000E-04  1.00000000E-04  1.00000000E-04  1.00000000E-04  1.00000000E-04  1.00000000E-04  1.00000000E-04  1.00000000E-04  1.00000000E-04
    1.00000000E-04  1.00000000E-04  1.00000000E-04  1.00000000E-04  1.00000000E-04  1.00000000E-04  1.00000000E-04  1.00000000E-04  1.00000000E-04
    1.00000000E-04  1.00000000E-04  1.00000000E-04  1.00000000E-04  1.00000000E-04  1.00000000E-04  1.00000000E-04  1.00000000E-04  1.00000000E-04
    1.00000000E-04  1.00000000E-04  1.00000000E-04  1.00000000E-04  1.00000000E-04  1.00000000E-04  1.00000000E-04  1.00000000E-04  1.00000000E-04
    1.00000000E-04  1.00000000E-04  1.00000000E-04  1.00000000E-04  1.00000000E-04  1.00000000E-04  1.00000000E-04  1.00000000E-04  1.00000000E-04
    1.00000000E-04  1.00000000E-04  1.00000000E-04  1.00000000E-04  1.00000000E-04  1.00000000E-04  1.00000000E-04  1.00000000E-04  1.00000000E-04
    1.00000000E-04  1.00000000E-04  1.00000000E-04  1.00000000E-04  1.00000000E-04  1.00000000E-04  1.00000000E-04  1.00000000E-04  1.00000000E-04
    1.00000000E-04  1.00000000E-04  1.00000000E-04  1.00000000E-04  1.00000000E-04  1.00000000E-04  1.00000000E-04  1.00000000E-04  1.00000000E-04
    1.00000000E-04  1.00000000E-04  1.00000000E-04  1.00000000E-04  1.00000000E-04  1.00000000E-04  1.00000000E-04  1.00000000E-04  1.00000000E-04
    1.00000000E-04  1.00000000E-04  1.00000000E-04  1.00000000E-04  1.00000000E-04  1.00000000E-04  1.00000000E-04  1.00000000E-04  1.00000000E-04
    1.00000000E-04  1.00000000E-04  1.00000000E-04  1.00000000E-04  1.00000000E-04  1.00000000E-04  1.00000000E-04  1.00000000E-04  1.00000000E-04
    1.00000000E-04  1.00000000E-04  1.00000000E-04  1.00000000E-04  1.00000000E-04  1.00000000E-04  1.00000000E-04  1.00000000E-04  1.00000000E-04
    1.00000000E-04  1.00000000E-04  1.00000000E-04  1.00000000E-04  1.00000000E-04  1.00000000E-04  1.00000000E-04  1.00000000E-04  1.00000000E-04
    1.00000000E-04  1.00000000E-04  1.00000000E-04  1.00000000E-04  1.00000000E-04  1.00000000E-04  1.00000000E-04  1.00000000E-04  1.00000000E-04
END PERIOD  8

BEGIN PERIOD  13
  recharge
    INTERNAL  FACTOR  1.0
         0.00100000       0.00100000       0.00100000       0.00100000       0.00100000       0.00100000       0.00100000       0.00100000       0.00100000
         0.00100000       0.00100000       0.00100000       0.00100000       0.00100000       0.00100000       0.00100000       0.00100000       0.00100000
         0.00100000       0.00100000       0.00100000       0.00100000       0.00100000       0.00100000       0.00100000       0.00100000       0.00100000
         0.00100000       0.00100000       0.00100000       0.00100000       0.00100000       0.00100000       0.00100000       0.00100000       0.00100000
         0.00100000       0.00100000       0.00100000       0.00100000       0.00100000       0.00100000       0.00100000       0.00100000       0.00100000
         0.00100000       0.00100000       0.00100000       0.00100000       0.00100000       0.00100000       0.00100000       0.00100000       0.00100000
         0.00100000       0.00100000       0.00100000       0.00100000       0.00100000       0.00100000       0.00100000       0.00100000       0.00100000
         0.00100000       0.00100000       0.00100000       0.00100000       0.00100000       0.00100000       0.00100000       0.00100000       0.00100000
         0.00100000       0.00100000       0.00100000       0.00100000       0.00100000       0.00100000       0.00100000       0.00100000       0.00100000
         0.00100000       0.00100000       0.00100000       0.00100000       0.00100000       0.00100000       0.00100000       0.00100000       0.00100000
         0.00100000       0.00100000       0.00100000       0.00100000       0.00100000       0.00100000       0.00100000       0.00100000       0.00100000
         0.00100000       0.00100000       0.00100000       0.00100000       0.00100000       0.00100000       0.00100000       0.00100000       0.00100000
         0.00100000       0.00100000       0.00100000       0.00100000       0.00100000       0.00100000       0.00100000       0.00100000       0.00100000
         0.00100000       0.00100000       0.00100000       0.00100000       0.00100000       0.00100000       0.00100000       0.00100000       0.00100000
         0.00100000       0.00100000       0.00100000       0.00100000       0.00100000       0.00100000       0.00100000       0.00100000       0.00100000
         0.00100000       0.00100000       0.00100000       0.00100000       0.00100000       0.00100000       0.00100000       0.00100000       0.00100000
         0.00100000       0.00100000       0.00100000       0.00100000       0.00100000       0.00100000       0.00100000       0.00100000       0.00100000
         0.00100000       0.00100000       0.00100000       0.00100000       0.00100000       0.00100000       0.00100000       0.00100000       0.00100000
         0.00100000       0.00100000       0.00100000       0.00100000       0.00100000       0.00100000       0.00100000       0.00100000       0.00100000
         0.00100000       0.00100000       0.00100000       0.00100000       0.00100000       0.00100000       0.00100000       0.00100000       0.00100000