# File generated by Flopy version 3.5.0 on 02/25/2024 at 12:29:47.
BEGIN Options
  SAVE_FLOWS
  VARIABLECV  DEWATERED
  PERCHED
END Options

BEGIN GRIDDATA
  icelltype  LAYERED
    CONSTANT  1
  k
    CONSTANT      50.00000000
END GRIDDATA

