# File generated by Flopy version 3.5.0 on 02/25/2024 at 12:29:34.
BEGIN Options
END Options

BEGIN GRIDDATA
  iconvert  LAYERED
    CONSTANT  1
  ss  LAYERED
    CONSTANT       0.10000000
  sy  LAYERED
    CONSTANT       0.10000000
END GRIDDATA

BEGIN Period  1
  STEADY-STATE
END Period  1

BEGIN Period  2
  TRANSIENT
END Period  2

