# File generated by Flopy version 3.5.0 on 02/25/2024 at 12:29:34.
BEGIN Options
  LIST  mumodel.lst
END Options

BEGIN Packages
  dis6  mumodel.dis
  ic6  mumodel.ic
  npf6  mumodel.npf
  sto6  mumodel.sto
  oc6  mumodel.oc
  wel6  mumodel.wel
  rch6  mumodel.rch
  chd6  mumodel.ib.ibound.chd  chd-from-ibound
END Packages

