# File generated by Flopy version 3.5.0 on 02/25/2024 at 12:29:34.
BEGIN GRIDDATA
  strt  LAYERED
    INTERNAL  FACTOR  1.0  IPRN  1
      1000.00000000    1000.00000000    1000.00000000    1000.00000000    1000.00000000    1000.00000000    1000.00000000    1000.00000000    1000.00000000
      1100.00000000    1100.00000000    1100.00000000    1100.00000000    1100.00000000    1100.00000000    1100.00000000    1100.00000000    1100.00000000
      1100.00000000    1100.00000000    1100.00000000    1100.00000000    1100.00000000    1100.00000000    1100.00000000    1100.00000000    1100.00000000
      1100.00000000    1100.00000000    1100.00000000    1100.00000000    1100.00000000    1100.00000000    1100.00000000    1100.00000000    1100.00000000
      1100.00000000    1100.00000000    1100.00000000    1100.00000000    1100.00000000    1100.00000000    1100.00000000    1100.00000000    1100.00000000
      1100.00000000    1100.00000000    1100.00000000    1100.00000000    1100.00000000    1100.00000000    1100.00000000    1100.00000000    1100.00000000
      1100.00000000    1100.00000000    1100.00000000    1100.00000000    1100.00000000    1100.00000000    1100.00000000    1100.00000000    1100.00000000
      1100.00000000    1100.00000000    1100.00000000    1100.00000000    1100.00000000    1100.00000000    1100.00000000    1100.00000000    1100.00000000
      1100.00000000    1100.00000000    1100.00000000    1100.00000000    1100.00000000    1100.00000000    1100.00000000    1100.00000000    1100.00000000
      1100.00000000    1100.00000000    1100.00000000    1100.00000000    1100.00000000    1100.00000000    1100.00000000    1100.00000000    1100.00000000
      1100.00000000    1100.00000000    1100.00000000    1100.00000000    1100.00000000    1100.00000000    1100.00000000    1100.00000000    1100.00000000
      1100.00000000    1100.00000000    1100.00000000    1100.00000000    1100.00000000    1100.00000000    1100.00000000    1100.00000000    1100.00000000
      1100.00000000    1100.00000000    1100.00000000    1100.00000000    1100.00000000    1100.00000000    1100.00000000    1100.00000000    1100.00000000
      1100.00000000    1100.00000000    1100.00000000    1100.00000000    1100.00000000    1100.00000000    1100.00000000    1100.00000000    1100.00000000
      1100.00000000    1100.00000000    1100.00000000    1100.00000000    1100.00000000    1100.00000000    1100.00000000    1100.00000000    1100.00000000
      1100.00000000    1100.00000000    1100.00000000    1100.00000000    1100.00000000    1100.00000000    1100.00000000    1100.00000000    1100.00000000
      1100.00000000    1100.00000000    1100.00000000    1100.00000000    1100.00000000    1100.00000000    1100.00000000    1100.00000000    1100.00000000
      1100.00000000    1100.00000000    1100.00000000    1100.00000000    1100.00000000    1100.00000000    1100.00000000    1100.00000000    1100.00000000
      1100.00000000    1100.00000000    1100.00000000    1100.00000000    1100.00000000    1100.00000000    1100.00000000    1100.00000000    1100.00000000
      1100.00000000    1100.00000000    1100.00000000    1100.00000000    1100.00000000    1100.00000000    1100.00000000    1100.00000000    1100.00000000
      1000.00000000    1000.00000000    1000.00000000    1000.00000000    1000.00000000    1000.00000000    1000.00000000    1000.00000000    1000.00000000
END GRIDDATA

