# File generated by Flopy version 3.5.0 on 02/25/2024 at 12:29:55.
BEGIN Options
  AUXILIARY  iface
  PRINT_INPUT
  PRINT_FLOWS
  SAVE_FLOWS
END Options

BEGIN Dimensions
  MAXBOUND  3
END Dimensions

BEGIN PERIOD  1
  1 5 5 0.00000000E+00 0.00000000E+00
  1 11 5 0.00000000E+00 0.00000000E+00
  1 5 5 0.00000000E+00 0.00000000E+00
END PERIOD  1

BEGIN PERIOD  14
  1 5 5 -4.00000000E+04 0.00000000E+00
  1 11 5 0.00000000E+00 0.00000000E+00
  1 5 5 0.00000000E+00 0.00000000E+00
END PERIOD  14

