# File generated by Flopy version 3.5.0 on 04/04/2024 at 10:02:00.
BEGIN Options
END Options

BEGIN GRIDDATA
  iconvert
    OPEN/CLOSE  'mumodel.sto_iconvert.txt'  FACTOR  1
  ss
    OPEN/CLOSE  'mumodel.sto_ss.txt'  FACTOR  1.0
  sy
    OPEN/CLOSE  'mumodel.sto_sy.txt'  FACTOR  1.0
END GRIDDATA

BEGIN Period  1
  STEADY-STATE
END Period  1

BEGIN Period  2
  TRANSIENT
END Period  2

