# File generated by Flopy version 3.5.0 on 04/04/2024 at 10:02:00.
BEGIN Options
  BUDGET  FILEOUT  mumodel_7-2b.cbb
  HEAD  FILEOUT  mumodel_7-2b.hds
  HEAD  PRINT_FORMAT  COLUMNS  10  WIDTH  11  DIGITS  4  general
END Options

BEGIN PERIOD  1
  SAVE  budget  all
  SAVE  head  all
  PRINT  budget  all
END PERIOD  1

