# File generated by Flopy version 3.5.0 on 04/04/2024 at 11:58:26.
BEGIN GRIDDATA
  strt
    OPEN/CLOSE  'mumodel.ic_strt.txt'  FACTOR  1.0
END GRIDDATA

