# File generated by Flopy version 3.5.0 on 03/30/2024 at 15:43:46.
BEGIN Options
  LENGTH_UNITS  undefined
END Options

BEGIN Dimensions
  NLAY  1
  NROW  21
  NCOL  9
END Dimensions

BEGIN GRIDDATA
  delr
    OPEN/CLOSE  'mumodel.dis_delr.txt'  FACTOR  1.0
  delc
    OPEN/CLOSE  'mumodel.dis_delc.txt'  FACTOR  1.0
  top
    OPEN/CLOSE  'mumodel.dis_top.txt'  FACTOR  1.0
  botm
    OPEN/CLOSE  'mumodel.dis_botm.txt'  FACTOR  1.0
END GRIDDATA

