# File generated by Flopy version 3.5.0 on 04/04/2024 at 11:58:26.
BEGIN Options
  PRINT_INPUT
  PRINT_FLOWS
END Options

BEGIN Dimensions
  MAXBOUND  18
END Dimensions

BEGIN PERIOD  1
    OPEN/CLOSE  'mumodel.ib.ibound.chd_stress_period_data_1.txt'
END PERIOD  1

