# File generated by Flopy version 3.5.0 on 04/04/2024 at 10:02:00.
BEGIN Options
  AUXILIARY  iface
  PRINT_INPUT
  PRINT_FLOWS
  SAVE_FLOWS
END Options

BEGIN Dimensions
  MAXBOUND  3
END Dimensions

BEGIN PERIOD  1
    OPEN/CLOSE  'mumodel.wel_stress_period_data_1.txt'
END PERIOD  1

BEGIN PERIOD  14
    OPEN/CLOSE  'mumodel.wel_stress_period_data_14.txt'
END PERIOD  14

