# File generated by Flopy version 3.5.0 on 03/30/2024 at 15:43:46.
BEGIN options
END options

BEGIN continuous  FILEOUT  hds.csv
    OPEN/CLOSE  'mumodel.obs_continuous_hds.csv.txt'
END continuous  FILEOUT  hds.csv

