# DIS package for MODFLOW-2000 generated by Flopy 3.5.0
         1        21         9        25         4         0
  0
OPEN/CLOSE                      .\delr.ref               1     (FREE) -1 delr                          
OPEN/CLOSE                      .\delc.ref               1     (FREE) -1 delc                          
OPEN/CLOSE                 .\model_top.ref               1     (FREE) -1 model_top                     
OPEN/CLOSE              .\botm_layer_1.ref               1     (FREE) -1 botm_layer_0                  
      1.000000             1  1.200000  SS
     31.000000             8  1.200000  TR
     28.000000             8  1.200000  TR
     31.000000             8  1.200000  TR
     30.000000             8  1.200000  TR
     31.000000             8  1.200000  TR
     30.000000             8  1.200000  TR
     31.000000             8  1.200000  TR
     31.000000             8  1.200000  TR
     30.000000             8  1.200000  TR
     31.000000             8  1.200000  TR
     30.000000             8  1.200000  TR
     31.000000             8  1.200000  TR
     31.000000             8  1.200000  TR
     28.000000             8  1.200000  TR
     31.000000             8  1.200000  TR
     30.000000             8  1.200000  TR
     31.000000             8  1.200000  TR
     30.000000             8  1.200000  TR
     31.000000             8  1.200000  TR
     31.000000             8  1.200000  TR
     30.000000             8  1.200000  TR
     31.000000             8  1.200000  TR
     30.000000             8  1.200000  TR
     31.000000             8  1.200000  TR
