# MODFLOW2000 Recharge Package
PARAMETER  0
         3        50
         1         0
        18   1.00000(10e12.4)                   -1     RECHARGE
  1.1040e-03  1.1040e-03  1.1040e-03  1.1040e-03  1.1040e-03  1.1040e-03  1.1040e-03  1.1040e-03  1.1040e-03
  1.1040e-03  1.1040e-03  1.1040e-03  1.1040e-03  1.1040e-03  1.1040e-03  1.1040e-03  1.1040e-03  1.1040e-03
  1.1040e-03  1.1040e-03  1.1040e-03  1.1040e-03  1.1040e-03  1.1040e-03  1.1040e-03  1.1040e-03  1.1040e-03
  1.1040e-03  1.1040e-03  1.1040e-03  1.1040e-03  1.1040e-03  1.1040e-03  1.1040e-03  1.1040e-03  1.1040e-03
  1.1040e-03  1.1040e-03  1.1040e-03  1.1040e-03  1.1040e-03  1.1040e-03  1.1040e-03  1.1040e-03  1.1040e-03
  1.1040e-03  1.1040e-03  1.1040e-03  1.1040e-03  1.1040e-03  1.1040e-03  1.1040e-03  1.1040e-03  1.1040e-03
  1.1040e-03  1.1040e-03  1.1040e-03  1.1040e-03  1.1040e-03  1.1040e-03  1.1040e-03  1.1040e-03  1.1040e-03
  1.1040e-03  1.1040e-03  1.1040e-03  1.1040e-03  1.1040e-03  1.1040e-03  1.1040e-03  1.1040e-03  1.1040e-03
  1.1040e-03  1.1040e-03  1.1040e-03  1.1040e-03  1.1040e-03  1.1040e-03  1.1040e-03  1.1040e-03  1.1040e-03
  1.1040e-03  1.1040e-03  1.1040e-03  1.1040e-03  1.1040e-03  1.1040e-03  1.1040e-03  1.1040e-03  1.1040e-03
  1.1040e-03  1.1040e-03  1.1040e-03  1.1040e-03  1.1040e-03  1.1040e-03  1.1040e-03  1.1040e-03  1.1040e-03
  1.1040e-03  1.1040e-03  1.1040e-03  1.1040e-03  1.1040e-03  1.1040e-03  1.1040e-03  1.1040e-03  1.1040e-03
  1.1040e-03  1.1040e-03  1.1040e-03  1.1040e-03  1.1040e-03  1.1040e-03  1.1040e-03  1.1040e-03  1.1040e-03
  1.1040e-03  1.1040e-03  1.1040e-03  1.1040e-03  1.1040e-03  1.1040e-03  1.1040e-03  1.1040e-03  1.1040e-03
  1.1040e-03  1.1040e-03  1.1040e-03  1.1040e-03  1.1040e-03  1.1040e-03  1.1040e-03  1.1040e-03  1.1040e-03
  1.1040e-03  1.1040e-03  1.1040e-03  1.1040e-03  1.1040e-03  1.1040e-03  1.1040e-03  1.1040e-03  1.1040e-03
  1.1040e-03  1.1040e-03  1.1040e-03  1.1040e-03  1.1040e-03  1.1040e-03  1.1040e-03  1.1040e-03  1.1040e-03
  1.1040e-03  1.1040e-03  1.1040e-03  1.1040e-03  1.1040e-03  1.1040e-03  1.1040e-03  1.1040e-03  1.1040e-03
  1.1040e-03  1.1040e-03  1.1040e-03  1.1040e-03  1.1040e-03  1.1040e-03  1.1040e-03  1.1040e-03  1.1040e-03
  1.1040e-03  1.1040e-03  1.1040e-03  1.1040e-03  1.1040e-03  1.1040e-03  1.1040e-03  1.1040e-03  1.1040e-03
  1.1040e-03  1.1040e-03  1.1040e-03  1.1040e-03  1.1040e-03  1.1040e-03  1.1040e-03  1.1040e-03  1.1040e-03
         1         0
        18   1.00000(10e12.4)                   -1     RECHARGE
  1.0000e-03  1.0000e-03  1.0000e-03  1.0000e-03  1.0000e-03  1.0000e-03  1.0000e-03  1.0000e-03  1.0000e-03
  1.0000e-03  1.0000e-03  1.0000e-03  1.0000e-03  1.0000e-03  1.0000e-03  1.0000e-03  1.0000e-03  1.0000e-03
  1.0000e-03  1.0000e-03  1.0000e-03  1.0000e-03  1.0000e-03  1.0000e-03  1.0000e-03  1.0000e-03  1.0000e-03
  1.0000e-03  1.0000e-03  1.0000e-03  1.0000e-03  1.0000e-03  1.0000e-03  1.0000e-03  1.0000e-03  1.0000e-03
  1.0000e-03  1.0000e-03  1.0000e-03  1.0000e-03  1.0000e-03  1.0000e-03  1.0000e-03  1.0000e-03  1.0000e-03
  1.0000e-03  1.0000e-03  1.0000e-03  1.0000e-03  1.0000e-03  1.0000e-03  1.0000e-03  1.0000e-03  1.0000e-03
  1.0000e-03  1.0000e-03  1.0000e-03  1.0000e-03  1.0000e-03  1.0000e-03  1.0000e-03  1.0000e-03  1.0000e-03
  1.0000e-03  1.0000e-03  1.0000e-03  1.0000e-03  1.0000e-03  1.0000e-03  1.0000e-03  1.0000e-03  1.0000e-03
  1.0000e-03  1.0000e-03  1.0000e-03  1.0000e-03  1.0000e-03  1.0000e-03  1.0000e-03  1.0000e-03  1.0000e-03
  1.0000e-03  1.0000e-03  1.0000e-03  1.0000e-03  1.0000e-03  1.0000e-03  1.0000e-03  1.0000e-03  1.0000e-03
  1.0000e-03  1.0000e-03  1.0000e-03  1.0000e-03  1.0000e-03  1.0000e-03  1.0000e-03  1.0000e-03  1.0000e-03
  1.0000e-03  1.0000e-03  1.0000e-03  1.0000e-03  1.0000e-03  1.0000e-03  1.0000e-03  1.0000e-03  1.0000e-03
  1.0000e-03  1.0000e-03  1.0000e-03  1.0000e-03  1.0000e-03  1.0000e-03  1.0000e-03  1.0000e-03  1.0000e-03
  1.0000e-03  1.0000e-03  1.0000e-03  1.0000e-03  1.0000e-03  1.0000e-03  1.0000e-03  1.0000e-03  1.0000e-03
  1.0000e-03  1.0000e-03  1.0000e-03  1.0000e-03  1.0000e-03  1.0000e-03  1.0000e-03  1.0000e-03  1.0000e-03
  1.0000e-03  1.0000e-03  1.0000e-03  1.0000e-03  1.0000e-03  1.0000e-03  1.0000e-03  1.0000e-03  1.0000e-03
  1.0000e-03  1.0000e-03  1.0000e-03  1.0000e-03  1.0000e-03  1.0000e-03  1.0000e-03  1.0000e-03  1.0000e-03
  1.0000e-03  1.0000e-03  1.0000e-03  1.0000e-03  1.0000e-03  1.0000e-03  1.0000e-03  1.0000e-03  1.0000e-03
  1.0000e-03  1.0000e-03  1.0000e-03  1.0000e-03  1.0000e-03  1.0000e-03  1.0000e-03  1.0000e-03  1.0000e-03
  1.0000e-03  1.0000e-03  1.0000e-03  1.0000e-03  1.0000e-03  1.0000e-03  1.0000e-03  1.0000e-03  1.0000e-03
  1.0000e-03  1.0000e-03  1.0000e-03  1.0000e-03  1.0000e-03  1.0000e-03  1.0000e-03  1.0000e-03  1.0000e-03
         1         0
        18   1.00000(10e12.4)                   -1     RECHARGE
  3.0000e-03  3.0000e-03  3.0000e-03  3.0000e-03  3.0000e-03  3.0000e-03  3.0000e-03  3.0000e-03  3.0000e-03
  3.0000e-03  3.0000e-03  3.0000e-03  3.0000e-03  3.0000e-03  3.0000e-03  3.0000e-03  3.0000e-03  3.0000e-03
  3.0000e-03  3.0000e-03  3.0000e-03  3.0000e-03  3.0000e-03  3.0000e-03  3.0000e-03  3.0000e-03  3.0000e-03
  3.0000e-03  3.0000e-03  3.0000e-03  3.0000e-03  3.0000e-03  3.0000e-03  3.0000e-03  3.0000e-03  3.0000e-03
  3.0000e-03  3.0000e-03  3.0000e-03  3.0000e-03  3.0000e-03  3.0000e-03  3.0000e-03  3.0000e-03  3.0000e-03
  3.0000e-03  3.0000e-03  3.0000e-03  3.0000e-03  3.0000e-03  3.0000e-03  3.0000e-03  3.0000e-03  3.0000e-03
  3.0000e-03  3.0000e-03  3.0000e-03  3.0000e-03  3.0000e-03  3.0000e-03  3.0000e-03  3.0000e-03  3.0000e-03
  3.0000e-03  3.0000e-03  3.0000e-03  3.0000e-03  3.0000e-03  3.0000e-03  3.0000e-03  3.0000e-03  3.0000e-03
  3.0000e-03  3.0000e-03  3.0000e-03  3.0000e-03  3.0000e-03  3.0000e-03  3.0000e-03  3.0000e-03  3.0000e-03
  3.0000e-03  3.0000e-03  3.0000e-03  3.0000e-03  3.0000e-03  3.0000e-03  3.0000e-03  3.0000e-03  3.0000e-03
  3.0000e-03  3.0000e-03  3.0000e-03  3.0000e-03  3.0000e-03  3.0000e-03  3.0000e-03  3.0000e-03  3.0000e-03
  3.0000e-03  3.0000e-03  3.0000e-03  3.0000e-03  3.0000e-03  3.0000e-03  3.0000e-03  3.0000e-03  3.0000e-03
  3.0000e-03  3.0000e-03  3.0000e-03  3.0000e-03  3.0000e-03  3.0000e-03  3.0000e-03  3.0000e-03  3.0000e-03
  3.0000e-03  3.0000e-03  3.0000e-03  3.0000e-03  3.0000e-03  3.0000e-03  3.0000e-03  3.0000e-03  3.0000e-03
  3.0000e-03  3.0000e-03  3.0000e-03  3.0000e-03  3.0000e-03  3.0000e-03  3.0000e-03  3.0000e-03  3.0000e-03
  3.0000e-03  3.0000e-03  3.0000e-03  3.0000e-03  3.0000e-03  3.0000e-03  3.0000e-03  3.0000e-03  3.0000e-03
  3.0000e-03  3.0000e-03  3.0000e-03  3.0000e-03  3.0000e-03  3.0000e-03  3.0000e-03  3.0000e-03  3.0000e-03
  3.0000e-03  3.0000e-03  3.0000e-03  3.0000e-03  3.0000e-03  3.0000e-03  3.0000e-03  3.0000e-03  3.0000e-03
  3.0000e-03  3.0000e-03  3.0000e-03  3.0000e-03  3.0000e-03  3.0000e-03  3.0000e-03  3.0000e-03  3.0000e-03
  3.0000e-03  3.0000e-03  3.0000e-03  3.0000e-03  3.0000e-03  3.0000e-03  3.0000e-03  3.0000e-03  3.0000e-03
  3.0000e-03  3.0000e-03  3.0000e-03  3.0000e-03  3.0000e-03  3.0000e-03  3.0000e-03  3.0000e-03  3.0000e-03
         1         0
        18   1.00000(10e12.4)                   -1     RECHARGE
  4.0000e-03  4.0000e-03  4.0000e-03  4.0000e-03  4.0000e-03  4.0000e-03  4.0000e-03  4.0000e-03  4.0000e-03
  4.0000e-03  4.0000e-03  4.0000e-03  4.0000e-03  4.0000e-03  4.0000e-03  4.0000e-03  4.0000e-03  4.0000e-03
  4.0000e-03  4.0000e-03  4.0000e-03  4.0000e-03  4.0000e-03  4.0000e-03  4.0000e-03  4.0000e-03  4.0000e-03
  4.0000e-03  4.0000e-03  4.0000e-03  4.0000e-03  4.0000e-03  4.0000e-03  4.0000e-03  4.0000e-03  4.0000e-03
  4.0000e-03  4.0000e-03  4.0000e-03  4.0000e-03  4.0000e-03  4.0000e-03  4.0000e-03  4.0000e-03  4.0000e-03
  4.0000e-03  4.0000e-03  4.0000e-03  4.0000e-03  4.0000e-03  4.0000e-03  4.0000e-03  4.0000e-03  4.0000e-03
  4.0000e-03  4.0000e-03  4.0000e-03  4.0000e-03  4.0000e-03  4.0000e-03  4.0000e-03  4.0000e-03  4.0000e-03
  4.0000e-03  4.0000e-03  4.0000e-03  4.0000e-03  4.0000e-03  4.0000e-03  4.0000e-03  4.0000e-03  4.0000e-03
  4.0000e-03  4.0000e-03  4.0000e-03  4.0000e-03  4.0000e-03  4.0000e-03  4.0000e-03  4.0000e-03  4.0000e-03
  4.0000e-03  4.0000e-03  4.0000e-03  4.0000e-03  4.0000e-03  4.0000e-03  4.0000e-03  4.0000e-03  4.0000e-03
  4.0000e-03  4.0000e-03  4.0000e-03  4.0000e-03  4.0000e-03  4.0000e-03  4.0000e-03  4.0000e-03  4.0000e-03
  4.0000e-03  4.0000e-03  4.0000e-03  4.0000e-03  4.0000e-03  4.0000e-03  4.0000e-03  4.0000e-03  4.0000e-03
  4.0000e-03  4.0000e-03  4.0000e-03  4.0000e-03  4.0000e-03  4.0000e-03  4.0000e-03  4.0000e-03  4.0000e-03
  4.0000e-03  4.0000e-03  4.0000e-03  4.0000e-03  4.0000e-03  4.0000e-03  4.0000e-03  4.0000e-03  4.0000e-03
  4.0000e-03  4.0000e-03  4.0000e-03  4.0000e-03  4.0000e-03  4.0000e-03  4.0000e-03  4.0000e-03  4.0000e-03
  4.0000e-03  4.0000e-03  4.0000e-03  4.0000e-03  4.0000e-03  4.0000e-03  4.0000e-03  4.0000e-03  4.0000e-03
  4.0000e-03  4.0000e-03  4.0000e-03  4.0000e-03  4.0000e-03  4.0000e-03  4.0000e-03  4.0000e-03  4.0000e-03
  4.0000e-03  4.0000e-03  4.0000e-03  4.0000e-03  4.0000e-03  4.0000e-03  4.0000e-03  4.0000e-03  4.0000e-03
  4.0000e-03  4.0000e-03  4.0000e-03  4.0000e-03  4.0000e-03  4.0000e-03  4.0000e-03  4.0000e-03  4.0000e-03
  4.0000e-03  4.0000e-03  4.0000e-03  4.0000e-03  4.0000e-03  4.0000e-03  4.0000e-03  4.0000e-03  4.0000e-03
  4.0000e-03  4.0000e-03  4.0000e-03  4.0000e-03  4.0000e-03  4.0000e-03  4.0000e-03  4.0000e-03  4.0000e-03
         1         0
        18   1.00000(10e12.4)                   -1     RECHARGE
  3.0000e-03  3.0000e-03  3.0000e-03  3.0000e-03  3.0000e-03  3.0000e-03  3.0000e-03  3.0000e-03  3.0000e-03
  3.0000e-03  3.0000e-03  3.0000e-03  3.0000e-03  3.0000e-03  3.0000e-03  3.0000e-03  3.0000e-03  3.0000e-03
  3.0000e-03  3.0000e-03  3.0000e-03  3.0000e-03  3.0000e-03  3.0000e-03  3.0000e-03  3.0000e-03  3.0000e-03
  3.0000e-03  3.0000e-03  3.0000e-03  3.0000e-03  3.0000e-03  3.0000e-03  3.0000e-03  3.0000e-03  3.0000e-03
  3.0000e-03  3.0000e-03  3.0000e-03  3.0000e-03  3.0000e-03  3.0000e-03  3.0000e-03  3.0000e-03  3.0000e-03
  3.0000e-03  3.0000e-03  3.0000e-03  3.0000e-03  3.0000e-03  3.0000e-03  3.0000e-03  3.0000e-03  3.0000e-03
  3.0000e-03  3.0000e-03  3.0000e-03  3.0000e-03  3.0000e-03  3.0000e-03  3.0000e-03  3.0000e-03  3.0000e-03
  3.0000e-03  3.0000e-03  3.0000e-03  3.0000e-03  3.0000e-03  3.0000e-03  3.0000e-03  3.0000e-03  3.0000e-03
  3.0000e-03  3.0000e-03  3.0000e-03  3.0000e-03  3.0000e-03  3.0000e-03  3.0000e-03  3.0000e-03  3.0000e-03
  3.0000e-03  3.0000e-03  3.0000e-03  3.0000e-03  3.0000e-03  3.0000e-03  3.0000e-03  3.0000e-03  3.0000e-03
  3.0000e-03  3.0000e-03  3.0000e-03  3.0000e-03  3.0000e-03  3.0000e-03  3.0000e-03  3.0000e-03  3.0000e-03
  3.0000e-03  3.0000e-03  3.0000e-03  3.0000e-03  3.0000e-03  3.0000e-03  3.0000e-03  3.0000e-03  3.0000e-03
  3.0000e-03  3.0000e-03  3.0000e-03  3.0000e-03  3.0000e-03  3.0000e-03  3.0000e-03  3.0000e-03  3.0000e-03
  3.0000e-03  3.0000e-03  3.0000e-03  3.0000e-03  3.0000e-03  3.0000e-03  3.0000e-03  3.0000e-03  3.0000e-03
  3.0000e-03  3.0000e-03  3.0000e-03  3.0000e-03  3.0000e-03  3.0000e-03  3.0000e-03  3.0000e-03  3.0000e-03
  3.0000e-03  3.0000e-03  3.0000e-03  3.0000e-03  3.0000e-03  3.0000e-03  3.0000e-03  3.0000e-03  3.0000e-03
  3.0000e-03  3.0000e-03  3.0000e-03  3.0000e-03  3.0000e-03  3.0000e-03  3.0000e-03  3.0000e-03  3.0000e-03
  3.0000e-03  3.0000e-03  3.0000e-03  3.0000e-03  3.0000e-03  3.0000e-03  3.0000e-03  3.0000e-03  3.0000e-03
  3.0000e-03  3.0000e-03  3.0000e-03  3.0000e-03  3.0000e-03  3.0000e-03  3.0000e-03  3.0000e-03  3.0000e-03
  3.0000e-03  3.0000e-03  3.0000e-03  3.0000e-03  3.0000e-03  3.0000e-03  3.0000e-03  3.0000e-03  3.0000e-03
  3.0000e-03  3.0000e-03  3.0000e-03  3.0000e-03  3.0000e-03  3.0000e-03  3.0000e-03  3.0000e-03  3.0000e-03
         1         0
        18   1.00000(10e12.4)                   -1     RECHARGE
  1.0000e-03  1.0000e-03  1.0000e-03  1.0000e-03  1.0000e-03  1.0000e-03  1.0000e-03  1.0000e-03  1.0000e-03
  1.0000e-03  1.0000e-03  1.0000e-03  1.0000e-03  1.0000e-03  1.0000e-03  1.0000e-03  1.0000e-03  1.0000e-03
  1.0000e-03  1.0000e-03  1.0000e-03  1.0000e-03  1.0000e-03  1.0000e-03  1.0000e-03  1.0000e-03  1.0000e-03
  1.0000e-03  1.0000e-03  1.0000e-03  1.0000e-03  1.0000e-03  1.0000e-03  1.0000e-03  1.0000e-03  1.0000e-03
  1.0000e-03  1.0000e-03  1.0000e-03  1.0000e-03  1.0000e-03  1.0000e-03  1.0000e-03  1.0000e-03  1.0000e-03
  1.0000e-03  1.0000e-03  1.0000e-03  1.0000e-03  1.0000e-03  1.0000e-03  1.0000e-03  1.0000e-03  1.0000e-03
  1.0000e-03  1.0000e-03  1.0000e-03  1.0000e-03  1.0000e-03  1.0000e-03  1.0000e-03  1.0000e-03  1.0000e-03
  1.0000e-03  1.0000e-03  1.0000e-03  1.0000e-03  1.0000e-03  1.0000e-03  1.0000e-03  1.0000e-03  1.0000e-03
  1.0000e-03  1.0000e-03  1.0000e-03  1.0000e-03  1.0000e-03  1.0000e-03  1.0000e-03  1.0000e-03  1.0000e-03
  1.0000e-03  1.0000e-03  1.0000e-03  1.0000e-03  1.0000e-03  1.0000e-03  1.0000e-03  1.0000e-03  1.0000e-03
  1.0000e-03  1.0000e-03  1.0000e-03  1.0000e-03  1.0000e-03  1.0000e-03  1.0000e-03  1.0000e-03  1.0000e-03
  1.0000e-03  1.0000e-03  1.0000e-03  1.0000e-03  1.0000e-03  1.0000e-03  1.0000e-03  1.0000e-03  1.0000e-03
  1.0000e-03  1.0000e-03  1.0000e-03  1.0000e-03  1.0000e-03  1.0000e-03  1.0000e-03  1.0000e-03  1.0000e-03
  1.0000e-03  1.0000e-03  1.0000e-03  1.0000e-03  1.0000e-03  1.0000e-03  1.0000e-03  1.0000e-03  1.0000e-03
  1.0000e-03  1.0000e-03  1.0000e-03  1.0000e-03  1.0000e-03  1.0000e-03  1.0000e-03  1.0000e-03  1.0000e-03
  1.0000e-03  1.0000e-03  1.0000e-03  1.0000e-03  1.0000e-03  1.0000e-03  1.0000e-03  1.0000e-03  1.0000e-03
  1.0000e-03  1.0000e-03  1.0000e-03  1.0000e-03  1.0000e-03  1.0000e-03  1.0000e-03  1.0000e-03  1.0000e-03
  1.0000e-03  1.0000e-03  1.0000e-03  1.0000e-03  1.0000e-03  1.0000e-03  1.0000e-03  1.0000e-03  1.0000e-03
  1.0000e-03  1.0000e-03  1.0000e-03  1.0000e-03  1.0000e-03  1.0000e-03  1.0000e-03  1.0000e-03  1.0000e-03
  1.0000e-03  1.0000e-03  1.0000e-03  1.0000e-03  1.0000e-03  1.0000e-03  1.0000e-03  1.0000e-03  1.0000e-03
  1.0000e-03  1.0000e-03  1.0000e-03  1.0000e-03  1.0000e-03  1.0000e-03  1.0000e-03  1.0000e-03  1.0000e-03
         1         0
        18   1.00000(10e12.4)                   -1     RECHARGE
  5.0000e-04  5.0000e-04  5.0000e-04  5.0000e-04  5.0000e-04  5.0000e-04  5.0000e-04  5.0000e-04  5.0000e-04
  5.0000e-04  5.0000e-04  5.0000e-04  5.0000e-04  5.0000e-04  5.0000e-04  5.0000e-04  5.0000e-04  5.0000e-04
  5.0000e-04  5.0000e-04  5.0000e-04  5.0000e-04  5.0000e-04  5.0000e-04  5.0000e-04  5.0000e-04  5.0000e-04
  5.0000e-04  5.0000e-04  5.0000e-04  5.0000e-04  5.0000e-04  5.0000e-04  5.0000e-04  5.0000e-04  5.0000e-04
  5.0000e-04  5.0000e-04  5.0000e-04  5.0000e-04  5.0000e-04  5.0000e-04  5.0000e-04  5.0000e-04  5.0000e-04
  5.0000e-04  5.0000e-04  5.0000e-04  5.0000e-04  5.0000e-04  5.0000e-04  5.0000e-04  5.0000e-04  5.0000e-04
  5.0000e-04  5.0000e-04  5.0000e-04  5.0000e-04  5.0000e-04  5.0000e-04  5.0000e-04  5.0000e-04  5.0000e-04
  5.0000e-04  5.0000e-04  5.0000e-04  5.0000e-04  5.0000e-04  5.0000e-04  5.0000e-04  5.0000e-04  5.0000e-04
  5.0000e-04  5.0000e-04  5.0000e-04  5.0000e-04  5.0000e-04  5.0000e-04  5.0000e-04  5.0000e-04  5.0000e-04
  5.0000e-04  5.0000e-04  5.0000e-04  5.0000e-04  5.0000e-04  5.0000e-04  5.0000e-04  5.0000e-04  5.0000e-04
  5.0000e-04  5.0000e-04  5.0000e-04  5.0000e-04  5.0000e-04  5.0000e-04  5.0000e-04  5.0000e-04  5.0000e-04
  5.0000e-04  5.0000e-04  5.0000e-04  5.0000e-04  5.0000e-04  5.0000e-04  5.0000e-04  5.0000e-04  5.0000e-04
  5.0000e-04  5.0000e-04  5.0000e-04  5.0000e-04  5.0000e-04  5.0000e-04  5.0000e-04  5.0000e-04  5.0000e-04
  5.0000e-04  5.0000e-04  5.0000e-04  5.0000e-04  5.0000e-04  5.0000e-04  5.0000e-04  5.0000e-04  5.0000e-04
  5.0000e-04  5.0000e-04  5.0000e-04  5.0000e-04  5.0000e-04  5.0000e-04  5.0000e-04  5.0000e-04  5.0000e-04
  5.0000e-04  5.0000e-04  5.0000e-04  5.0000e-04  5.0000e-04  5.0000e-04  5.0000e-04  5.0000e-04  5.0000e-04
  5.0000e-04  5.0000e-04  5.0000e-04  5.0000e-04  5.0000e-04  5.0000e-04  5.0000e-04  5.0000e-04  5.0000e-04
  5.0000e-04  5.0000e-04  5.0000e-04  5.0000e-04  5.0000e-04  5.0000e-04  5.0000e-04  5.0000e-04  5.0000e-04
  5.0000e-04  5.0000e-04  5.0000e-04  5.0000e-04  5.0000e-04  5.0000e-04  5.0000e-04  5.0000e-04  5.0000e-04
  5.0000e-04  5.0000e-04  5.0000e-04  5.0000e-04  5.0000e-04  5.0000e-04  5.0000e-04  5.0000e-04  5.0000e-04
  5.0000e-04  5.0000e-04  5.0000e-04  5.0000e-04  5.0000e-04  5.0000e-04  5.0000e-04  5.0000e-04  5.0000e-04
         1         0
        18   1.00000(10e12.4)                   -1     RECHARGE
  5.0000e-05  5.0000e-05  5.0000e-05  5.0000e-05  5.0000e-05  5.0000e-05  5.0000e-05  5.0000e-05  5.0000e-05
  5.0000e-05  5.0000e-05  5.0000e-05  5.0000e-05  5.0000e-05  5.0000e-05  5.0000e-05  5.0000e-05  5.0000e-05
  5.0000e-05  5.0000e-05  5.0000e-05  5.0000e-05  5.0000e-05  5.0000e-05  5.0000e-05  5.0000e-05  5.0000e-05
  5.0000e-05  5.0000e-05  5.0000e-05  5.0000e-05  5.0000e-05  5.0000e-05  5.0000e-05  5.0000e-05  5.0000e-05
  5.0000e-05  5.0000e-05  5.0000e-05  5.0000e-05  5.0000e-05  5.0000e-05  5.0000e-05  5.0000e-05  5.0000e-05
  5.0000e-05  5.0000e-05  5.0000e-05  5.0000e-05  5.0000e-05  5.0000e-05  5.0000e-05  5.0000e-05  5.0000e-05
  5.0000e-05  5.0000e-05  5.0000e-05  5.0000e-05  5.0000e-05  5.0000e-05  5.0000e-05  5.0000e-05  5.0000e-05
  5.0000e-05  5.0000e-05  5.0000e-05  5.0000e-05  5.0000e-05  5.0000e-05  5.0000e-05  5.0000e-05  5.0000e-05
  5.0000e-05  5.0000e-05  5.0000e-05  5.0000e-05  5.0000e-05  5.0000e-05  5.0000e-05  5.0000e-05  5.0000e-05
  5.0000e-05  5.0000e-05  5.0000e-05  5.0000e-05  5.0000e-05  5.0000e-05  5.0000e-05  5.0000e-05  5.0000e-05
  5.0000e-05  5.0000e-05  5.0000e-05  5.0000e-05  5.0000e-05  5.0000e-05  5.0000e-05  5.0000e-05  5.0000e-05
  5.0000e-05  5.0000e-05  5.0000e-05  5.0000e-05  5.0000e-05  5.0000e-05  5.0000e-05  5.0000e-05  5.0000e-05
  5.0000e-05  5.0000e-05  5.0000e-05  5.0000e-05  5.0000e-05  5.0000e-05  5.0000e-05  5.0000e-05  5.0000e-05
  5.0000e-05  5.0000e-05  5.0000e-05  5.0000e-05  5.0000e-05  5.0000e-05  5.0000e-05  5.0000e-05  5.0000e-05
  5.0000e-05  5.0000e-05  5.0000e-05  5.0000e-05  5.0000e-05  5.0000e-05  5.0000e-05  5.0000e-05  5.0000e-05
  5.0000e-05  5.0000e-05  5.0000e-05  5.0000e-05  5.0000e-05  5.0000e-05  5.0000e-05  5.0000e-05  5.0000e-05
  5.0000e-05  5.0000e-05  5.0000e-05  5.0000e-05  5.0000e-05  5.0000e-05  5.0000e-05  5.0000e-05  5.0000e-05
  5.0000e-05  5.0000e-05  5.0000e-05  5.0000e-05  5.0000e-05  5.0000e-05  5.0000e-05  5.0000e-05  5.0000e-05
  5.0000e-05  5.0000e-05  5.0000e-05  5.0000e-05  5.0000e-05  5.0000e-05  5.0000e-05  5.0000e-05  5.0000e-05
  5.0000e-05  5.0000e-05  5.0000e-05  5.0000e-05  5.0000e-05  5.0000e-05  5.0000e-05  5.0000e-05  5.0000e-05
  5.0000e-05  5.0000e-05  5.0000e-05  5.0000e-05  5.0000e-05  5.0000e-05  5.0000e-05  5.0000e-05  5.0000e-05
         1         0
        18   1.00000(10e12.4)                   -1     RECHARGE
  5.0000e-05  5.0000e-05  5.0000e-05  5.0000e-05  5.0000e-05  5.0000e-05  5.0000e-05  5.0000e-05  5.0000e-05
  5.0000e-05  5.0000e-05  5.0000e-05  5.0000e-05  5.0000e-05  5.0000e-05  5.0000e-05  5.0000e-05  5.0000e-05
  5.0000e-05  5.0000e-05  5.0000e-05  5.0000e-05  5.0000e-05  5.0000e-05  5.0000e-05  5.0000e-05  5.0000e-05
  5.0000e-05  5.0000e-05  5.0000e-05  5.0000e-05  5.0000e-05  5.0000e-05  5.0000e-05  5.0000e-05  5.0000e-05
  5.0000e-05  5.0000e-05  5.0000e-05  5.0000e-05  5.0000e-05  5.0000e-05  5.0000e-05  5.0000e-05  5.0000e-05
  5.0000e-05  5.0000e-05  5.0000e-05  5.0000e-05  5.0000e-05  5.0000e-05  5.0000e-05  5.0000e-05  5.0000e-05
  5.0000e-05  5.0000e-05  5.0000e-05  5.0000e-05  5.0000e-05  5.0000e-05  5.0000e-05  5.0000e-05  5.0000e-05
  5.0000e-05  5.0000e-05  5.0000e-05  5.0000e-05  5.0000e-05  5.0000e-05  5.0000e-05  5.0000e-05  5.0000e-05
  5.0000e-05  5.0000e-05  5.0000e-05  5.0000e-05  5.0000e-05  5.0000e-05  5.0000e-05  5.0000e-05  5.0000e-05
  5.0000e-05  5.0000e-05  5.0000e-05  5.0000e-05  5.0000e-05  5.0000e-05  5.0000e-05  5.0000e-05  5.0000e-05
  5.0000e-05  5.0000e-05  5.0000e-05  5.0000e-05  5.0000e-05  5.0000e-05  5.0000e-05  5.0000e-05  5.0000e-05
  5.0000e-05  5.0000e-05  5.0000e-05  5.0000e-05  5.0000e-05  5.0000e-05  5.0000e-05  5.0000e-05  5.0000e-05
  5.0000e-05  5.0000e-05  5.0000e-05  5.0000e-05  5.0000e-05  5.0000e-05  5.0000e-05  5.0000e-05  5.0000e-05
  5.0000e-05  5.0000e-05  5.0000e-05  5.0000e-05  5.0000e-05  5.0000e-05  5.0000e-05  5.0000e-05  5.0000e-05
  5.0000e-05  5.0000e-05  5.0000e-05  5.0000e-05  5.0000e-05  5.0000e-05  5.0000e-05  5.0000e-05  5.0000e-05
  5.0000e-05  5.0000e-05  5.0000e-05  5.0000e-05  5.0000e-05  5.0000e-05  5.0000e-05  5.0000e-05  5.0000e-05
  5.0000e-05  5.0000e-05  5.0000e-05  5.0000e-05  5.0000e-05  5.0000e-05  5.0000e-05  5.0000e-05  5.0000e-05
  5.0000e-05  5.0000e-05  5.0000e-05  5.0000e-05  5.0000e-05  5.0000e-05  5.0000e-05  5.0000e-05  5.0000e-05
  5.0000e-05  5.0000e-05  5.0000e-05  5.0000e-05  5.0000e-05  5.0000e-05  5.0000e-05  5.0000e-05  5.0000e-05
  5.0000e-05  5.0000e-05  5.0000e-05  5.0000e-05  5.0000e-05  5.0000e-05  5.0000e-05  5.0000e-05  5.0000e-05
  5.0000e-05  5.0000e-05  5.0000e-05  5.0000e-05  5.0000e-05  5.0000e-05  5.0000e-05  5.0000e-05  5.0000e-05
         1         0
        18   1.00000(10e12.4)                   -1     RECHARGE
  5.0000e-05  5.0000e-05  5.0000e-05  5.0000e-05  5.0000e-05  5.0000e-05  5.0000e-05  5.0000e-05  5.0000e-05
  5.0000e-05  5.0000e-05  5.0000e-05  5.0000e-05  5.0000e-05  5.0000e-05  5.0000e-05  5.0000e-05  5.0000e-05
  5.0000e-05  5.0000e-05  5.0000e-05  5.0000e-05  5.0000e-05  5.0000e-05  5.0000e-05  5.0000e-05  5.0000e-05
  5.0000e-05  5.0000e-05  5.0000e-05  5.0000e-05  5.0000e-05  5.0000e-05  5.0000e-05  5.0000e-05  5.0000e-05
  5.0000e-05  5.0000e-05  5.0000e-05  5.0000e-05  5.0000e-05  5.0000e-05  5.0000e-05  5.0000e-05  5.0000e-05
  5.0000e-05  5.0000e-05  5.0000e-05  5.0000e-05  5.0000e-05  5.0000e-05  5.0000e-05  5.0000e-05  5.0000e-05
  5.0000e-05  5.0000e-05  5.0000e-05  5.0000e-05  5.0000e-05  5.0000e-05  5.0000e-05  5.0000e-05  5.0000e-05
  5.0000e-05  5.0000e-05  5.0000e-05  5.0000e-05  5.0000e-05  5.0000e-05  5.0000e-05  5.0000e-05  5.0000e-05
  5.0000e-05  5.0000e-05  5.0000e-05  5.0000e-05  5.0000e-05  5.0000e-05  5.0000e-05  5.0000e-05  5.0000e-05
  5.0000e-05  5.0000e-05  5.0000e-05  5.0000e-05  5.0000e-05  5.0000e-05  5.0000e-05  5.0000e-05  5.0000e-05
  5.0000e-05  5.0000e-05  5.0000e-05  5.0000e-05  5.0000e-05  5.0000e-05  5.0000e-05  5.0000e-05  5.0000e-05
  5.0000e-05  5.0000e-05  5.0000e-05  5.0000e-05  5.0000e-05  5.0000e-05  5.0000e-05  5.0000e-05  5.0000e-05
  5.0000e-05  5.0000e-05  5.0000e-05  5.0000e-05  5.0000e-05  5.0000e-05  5.0000e-05  5.0000e-05  5.0000e-05
  5.0000e-05  5.0000e-05  5.0000e-05  5.0000e-05  5.0000e-05  5.0000e-05  5.0000e-05  5.0000e-05  5.0000e-05
  5.0000e-05  5.0000e-05  5.0000e-05  5.0000e-05  5.0000e-05  5.0000e-05  5.0000e-05  5.0000e-05  5.0000e-05
  5.0000e-05  5.0000e-05  5.0000e-05  5.0000e-05  5.0000e-05  5.0000e-05  5.0000e-05  5.0000e-05  5.0000e-05
  5.0000e-05  5.0000e-05  5.0000e-05  5.0000e-05  5.0000e-05  5.0000e-05  5.0000e-05  5.0000e-05  5.0000e-05
  5.0000e-05  5.0000e-05  5.0000e-05  5.0000e-05  5.0000e-05  5.0000e-05  5.0000e-05  5.0000e-05  5.0000e-05
  5.0000e-05  5.0000e-05  5.0000e-05  5.0000e-05  5.0000e-05  5.0000e-05  5.0000e-05  5.0000e-05  5.0000e-05
  5.0000e-05  5.0000e-05  5.0000e-05  5.0000e-05  5.0000e-05  5.0000e-05  5.0000e-05  5.0000e-05  5.0000e-05
  5.0000e-05  5.0000e-05  5.0000e-05  5.0000e-05  5.0000e-05  5.0000e-05  5.0000e-05  5.0000e-05  5.0000e-05
         1         0
        18   1.00000(10e12.4)                   -1     RECHARGE
  5.0000e-05  5.0000e-05  5.0000e-05  5.0000e-05  5.0000e-05  5.0000e-05  5.0000e-05  5.0000e-05  5.0000e-05
  5.0000e-05  5.0000e-05  5.0000e-05  5.0000e-05  5.0000e-05  5.0000e-05  5.0000e-05  5.0000e-05  5.0000e-05
  5.0000e-05  5.0000e-05  5.0000e-05  5.0000e-05  5.0000e-05  5.0000e-05  5.0000e-05  5.0000e-05  5.0000e-05
  5.0000e-05  5.0000e-05  5.0000e-05  5.0000e-05  5.0000e-05  5.0000e-05  5.0000e-05  5.0000e-05  5.0000e-05
  5.0000e-05  5.0000e-05  5.0000e-05  5.0000e-05  5.0000e-05  5.0000e-05  5.0000e-05  5.0000e-05  5.0000e-05
  5.0000e-05  5.0000e-05  5.0000e-05  5.0000e-05  5.0000e-05  5.0000e-05  5.0000e-05  5.0000e-05  5.0000e-05
  5.0000e-05  5.0000e-05  5.0000e-05  5.0000e-05  5.0000e-05  5.0000e-05  5.0000e-05  5.0000e-05  5.0000e-05
  5.0000e-05  5.0000e-05  5.0000e-05  5.0000e-05  5.0000e-05  5.0000e-05  5.0000e-05  5.0000e-05  5.0000e-05
  5.0000e-05  5.0000e-05  5.0000e-05  5.0000e-05  5.0000e-05  5.0000e-05  5.0000e-05  5.0000e-05  5.0000e-05
  5.0000e-05  5.0000e-05  5.0000e-05  5.0000e-05  5.0000e-05  5.0000e-05  5.0000e-05  5.0000e-05  5.0000e-05
  5.0000e-05  5.0000e-05  5.0000e-05  5.0000e-05  5.0000e-05  5.0000e-05  5.0000e-05  5.0000e-05  5.0000e-05
  5.0000e-05  5.0000e-05  5.0000e-05  5.0000e-05  5.0000e-05  5.0000e-05  5.0000e-05  5.0000e-05  5.0000e-05
  5.0000e-05  5.0000e-05  5.0000e-05  5.0000e-05  5.0000e-05  5.0000e-05  5.0000e-05  5.0000e-05  5.0000e-05
  5.0000e-05  5.0000e-05  5.0000e-05  5.0000e-05  5.0000e-05  5.0000e-05  5.0000e-05  5.0000e-05  5.0000e-05
  5.0000e-05  5.0000e-05  5.0000e-05  5.0000e-05  5.0000e-05  5.0000e-05  5.0000e-05  5.0000e-05  5.0000e-05
  5.0000e-05  5.0000e-05  5.0000e-05  5.0000e-05  5.0000e-05  5.0000e-05  5.0000e-05  5.0000e-05  5.0000e-05
  5.0000e-05  5.0000e-05  5.0000e-05  5.0000e-05  5.0000e-05  5.0000e-05  5.0000e-05  5.0000e-05  5.0000e-05
  5.0000e-05  5.0000e-05  5.0000e-05  5.0000e-05  5.0000e-05  5.0000e-05  5.0000e-05  5.0000e-05  5.0000e-05
  5.0000e-05  5.0000e-05  5.0000e-05  5.0000e-05  5.0000e-05  5.0000e-05  5.0000e-05  5.0000e-05  5.0000e-05
  5.0000e-05  5.0000e-05  5.0000e-05  5.0000e-05  5.0000e-05  5.0000e-05  5.0000e-05  5.0000e-05  5.0000e-05
  5.0000e-05  5.0000e-05  5.0000e-05  5.0000e-05  5.0000e-05  5.0000e-05  5.0000e-05  5.0000e-05  5.0000e-05
         1         0
        18   1.00000(10e12.4)                   -1     RECHARGE
  5.0000e-05  5.0000e-05  5.0000e-05  5.0000e-05  5.0000e-05  5.0000e-05  5.0000e-05  5.0000e-05  5.0000e-05
  5.0000e-05  5.0000e-05  5.0000e-05  5.0000e-05  5.0000e-05  5.0000e-05  5.0000e-05  5.0000e-05  5.0000e-05
  5.0000e-05  5.0000e-05  5.0000e-05  5.0000e-05  5.0000e-05  5.0000e-05  5.0000e-05  5.0000e-05  5.0000e-05
  5.0000e-05  5.0000e-05  5.0000e-05  5.0000e-05  5.0000e-05  5.0000e-05  5.0000e-05  5.0000e-05  5.0000e-05
  5.0000e-05  5.0000e-05  5.0000e-05  5.0000e-05  5.0000e-05  5.0000e-05  5.0000e-05  5.0000e-05  5.0000e-05
  5.0000e-05  5.0000e-05  5.0000e-05  5.0000e-05  5.0000e-05  5.0000e-05  5.0000e-05  5.0000e-05  5.0000e-05
  5.0000e-05  5.0000e-05  5.0000e-05  5.0000e-05  5.0000e-05  5.0000e-05  5.0000e-05  5.0000e-05  5.0000e-05
  5.0000e-05  5.0000e-05  5.0000e-05  5.0000e-05  5.0000e-05  5.0000e-05  5.0000e-05  5.0000e-05  5.0000e-05
  5.0000e-05  5.0000e-05  5.0000e-05  5.0000e-05  5.0000e-05  5.0000e-05  5.0000e-05  5.0000e-05  5.0000e-05
  5.0000e-05  5.0000e-05  5.0000e-05  5.0000e-05  5.0000e-05  5.0000e-05  5.0000e-05  5.0000e-05  5.0000e-05
  5.0000e-05  5.0000e-05  5.0000e-05  5.0000e-05  5.0000e-05  5.0000e-05  5.0000e-05  5.0000e-05  5.0000e-05
  5.0000e-05  5.0000e-05  5.0000e-05  5.0000e-05  5.0000e-05  5.0000e-05  5.0000e-05  5.0000e-05  5.0000e-05
  5.0000e-05  5.0000e-05  5.0000e-05  5.0000e-05  5.0000e-05  5.0000e-05  5.0000e-05  5.0000e-05  5.0000e-05
  5.0000e-05  5.0000e-05  5.0000e-05  5.0000e-05  5.0000e-05  5.0000e-05  5.0000e-05  5.0000e-05  5.0000e-05
  5.0000e-05  5.0000e-05  5.0000e-05  5.0000e-05  5.0000e-05  5.0000e-05  5.0000e-05  5.0000e-05  5.0000e-05
  5.0000e-05  5.0000e-05  5.0000e-05  5.0000e-05  5.0000e-05  5.0000e-05  5.0000e-05  5.0000e-05  5.0000e-05
  5.0000e-05  5.0000e-05  5.0000e-05  5.0000e-05  5.0000e-05  5.0000e-05  5.0000e-05  5.0000e-05  5.0000e-05
  5.0000e-05  5.0000e-05  5.0000e-05  5.0000e-05  5.0000e-05  5.0000e-05  5.0000e-05  5.0000e-05  5.0000e-05
  5.0000e-05  5.0000e-05  5.0000e-05  5.0000e-05  5.0000e-05  5.0000e-05  5.0000e-05  5.0000e-05  5.0000e-05
  5.0000e-05  5.0000e-05  5.0000e-05  5.0000e-05  5.0000e-05  5.0000e-05  5.0000e-05  5.0000e-05  5.0000e-05
  5.0000e-05  5.0000e-05  5.0000e-05  5.0000e-05  5.0000e-05  5.0000e-05  5.0000e-05  5.0000e-05  5.0000e-05
         1         0
        18   1.00000(10e12.4)                   -1     RECHARGE
  5.0000e-04  5.0000e-04  5.0000e-04  5.0000e-04  5.0000e-04  5.0000e-04  5.0000e-04  5.0000e-04  5.0000e-04
  5.0000e-04  5.0000e-04  5.0000e-04  5.0000e-04  5.0000e-04  5.0000e-04  5.0000e-04  5.0000e-04  5.0000e-04
  5.0000e-04  5.0000e-04  5.0000e-04  5.0000e-04  5.0000e-04  5.0000e-04  5.0000e-04  5.0000e-04  5.0000e-04
  5.0000e-04  5.0000e-04  5.0000e-04  5.0000e-04  5.0000e-04  5.0000e-04  5.0000e-04  5.0000e-04  5.0000e-04
  5.0000e-04  5.0000e-04  5.0000e-04  5.0000e-04  5.0000e-04  5.0000e-04  5.0000e-04  5.0000e-04  5.0000e-04
  5.0000e-04  5.0000e-04  5.0000e-04  5.0000e-04  5.0000e-04  5.0000e-04  5.0000e-04  5.0000e-04  5.0000e-04
  5.0000e-04  5.0000e-04  5.0000e-04  5.0000e-04  5.0000e-04  5.0000e-04  5.0000e-04  5.0000e-04  5.0000e-04
  5.0000e-04  5.0000e-04  5.0000e-04  5.0000e-04  5.0000e-04  5.0000e-04  5.0000e-04  5.0000e-04  5.0000e-04
  5.0000e-04  5.0000e-04  5.0000e-04  5.0000e-04  5.0000e-04  5.0000e-04  5.0000e-04  5.0000e-04  5.0000e-04
  5.0000e-04  5.0000e-04  5.0000e-04  5.0000e-04  5.0000e-04  5.0000e-04  5.0000e-04  5.0000e-04  5.0000e-04
  5.0000e-04  5.0000e-04  5.0000e-04  5.0000e-04  5.0000e-04  5.0000e-04  5.0000e-04  5.0000e-04  5.0000e-04
  5.0000e-04  5.0000e-04  5.0000e-04  5.0000e-04  5.0000e-04  5.0000e-04  5.0000e-04  5.0000e-04  5.0000e-04